/*--------------------------------*- C++ -*----------------------------------*\
  =========                 |
  \\      /  F ield         | OpenFOAM: The Open Source CFD Toolbox
   \\    /   O peration     | Website:  https://openfoam.org
    \\  /    A nd           | Version:  9
     \\/     M anipulation  |
\*---------------------------------------------------------------------------*/
FoamFile
{
    format      ascii;
    class       featureEdgeMesh;
    location    "constant/triSurface";
    object      rollLeft.eMesh;
}
// * * * * * * * * * * * * * * * * * * * * * * * * * * * * * * * * * * * * * //


// points:

252
(
(-0.002 0 -0.005)
(-0.00205967 0.0023926 -0.005)
(-0.00205967 0.0023926 0.005)
(-0.002 0 0.005)
(-0.00223852 0.00477926 0.005)
(-0.00253612 0.00715403 0.005)
(-0.00223852 0.00477926 -0.005)
(-0.00253612 0.00715403 -0.005)
(-0.00295172 0.00951101 0.005)
(-0.00348429 0.0118444 0.005)
(-0.00295172 0.00951101 -0.005)
(-0.00348429 0.0118444 -0.005)
(-0.00413251 0.0141482 0.005)
(-0.00413251 0.0141482 -0.005)
(-0.00489475 0.016417 0.005)
(-0.00576914 0.0186449 0.005)
(-0.00489475 0.016417 -0.005)
(-0.00576914 0.0186449 -0.005)
(-0.00675349 0.0208264 0.005)
(-0.00675349 0.0208264 -0.005)
(-0.00784536 0.0229562 0.005)
(-0.00784536 0.0229562 -0.005)
(-0.00904204 0.0250289 -0.005)
(-0.00904204 0.0250289 0.005)
(-0.0103405 0.0270394 0.005)
(-0.0103405 0.0270394 -0.005)
(-0.0117376 0.0289826 -0.005)
(-0.0117376 0.0289826 0.005)
(-0.0132299 0.0308538 -0.005)
(-0.0132299 0.0308538 0.005)
(-0.0148135 0.0326483 0.005)
(-0.0164846 0.0343616 0.005)
(-0.0148135 0.0326483 -0.005)
(-0.0164846 0.0343616 -0.005)
(-0.0182391 0.0359895 0.005)
(-0.0182391 0.0359895 -0.005)
(-0.0200725 0.0375279 0.005)
(-0.0219803 0.038973 0.005)
(-0.0200725 0.0375279 -0.005)
(-0.0219803 0.038973 -0.005)
(-0.0239578 0.0403212 0.005)
(-0.0239578 0.0403212 -0.005)
(-0.026 0.0415692 0.005)
(-0.026 0.0415692 -0.005)
(-0.0281019 0.0427138 0.005)
(-0.0281019 0.0427138 -0.005)
(-0.0302582 0.0437523 0.005)
(-0.0302582 0.0437523 -0.005)
(-0.0324636 0.0446819 0.005)
(-0.0324636 0.0446819 -0.005)
(-0.0347126 0.0455005 0.005)
(-0.0347126 0.0455005 -0.005)
(-0.0369997 0.046206 0.005)
(-0.0369997 0.046206 -0.005)
(-0.039319 0.0467965 0.005)
(-0.039319 0.0467965 -0.005)
(-0.0416649 0.0472708 0.005)
(-0.0440315 0.0476275 0.005)
(-0.0416649 0.0472708 -0.005)
(-0.0440315 0.0476275 -0.005)
(-0.046413 0.0478658 0.005)
(-0.046413 0.0478658 -0.005)
(-0.0488033 0.0479851 0.005)
(-0.0488033 0.0479851 -0.005)
(-0.0511967 0.0479851 0.005)
(-0.0511967 0.0479851 -0.005)
(-0.053587 0.0478658 0.005)
(-0.053587 0.0478658 -0.005)
(-0.0559685 0.0476275 0.005)
(-0.0559685 0.0476275 -0.005)
(-0.0583351 0.0472708 0.005)
(-0.0583351 0.0472708 -0.005)
(-0.060681 0.0467965 0.005)
(-0.060681 0.0467965 -0.005)
(-0.0630003 0.046206 0.005)
(-0.0652874 0.0455005 0.005)
(-0.0630003 0.046206 -0.005)
(-0.0652874 0.0455005 -0.005)
(-0.0675364 0.0446819 0.005)
(-0.0675364 0.0446819 -0.005)
(-0.0697418 0.0437523 -0.005)
(-0.0697418 0.0437523 0.005)
(-0.0718981 0.0427138 -0.005)
(-0.0718981 0.0427138 0.005)
(-0.074 0.0415692 -0.005)
(-0.074 0.0415692 0.005)
(-0.0760422 0.0403212 -0.005)
(-0.0760422 0.0403212 0.005)
(-0.0780197 0.038973 -0.005)
(-0.0780197 0.038973 0.005)
(-0.0799275 0.0375279 -0.005)
(-0.0799275 0.0375279 0.005)
(-0.0817609 0.0359895 -0.005)
(-0.0817609 0.0359895 0.005)
(-0.0835154 0.0343616 0.005)
(-0.0835154 0.0343616 -0.005)
(-0.0851865 0.0326483 0.005)
(-0.0851865 0.0326483 -0.005)
(-0.0867701 0.0308538 0.005)
(-0.0867701 0.0308538 -0.005)
(-0.0882624 0.0289826 0.005)
(-0.0896595 0.0270394 0.005)
(-0.0882624 0.0289826 -0.005)
(-0.0896595 0.0270394 -0.005)
(-0.090958 0.0250289 0.005)
(-0.0921546 0.0229562 0.005)
(-0.090958 0.0250289 -0.005)
(-0.0921546 0.0229562 -0.005)
(-0.0932465 0.0208264 0.005)
(-0.0942309 0.0186449 0.005)
(-0.0932465 0.0208264 -0.005)
(-0.0942309 0.0186449 -0.005)
(-0.0951052 0.016417 0.005)
(-0.0951052 0.016417 -0.005)
(-0.0958675 0.0141482 0.005)
(-0.0965157 0.0118444 0.005)
(-0.0958675 0.0141482 -0.005)
(-0.0965157 0.0118444 -0.005)
(-0.0970483 0.00951101 0.005)
(-0.0970483 0.00951101 -0.005)
(-0.0974639 0.00715403 0.005)
(-0.0974639 0.00715403 -0.005)
(-0.0977615 0.00477926 0.005)
(-0.0977615 0.00477926 -0.005)
(-0.0979403 0.0023926 -0.005)
(-0.0979403 0.0023926 0.005)
(-0.098 -1.64652e-16 0.005)
(-0.098 -1.64652e-16 -0.005)
(-0.0979403 -0.0023926 0.005)
(-0.0979403 -0.0023926 -0.005)
(-0.0977615 -0.00477926 -0.005)
(-0.0977615 -0.00477926 0.005)
(-0.0974639 -0.00715403 0.005)
(-0.0974639 -0.00715403 -0.005)
(-0.0970483 -0.00951101 0.005)
(-0.0970483 -0.00951101 -0.005)
(-0.0965157 -0.0118444 0.005)
(-0.0965157 -0.0118444 -0.005)
(-0.0958675 -0.0141482 -0.005)
(-0.0958675 -0.0141482 0.005)
(-0.0951052 -0.016417 0.005)
(-0.0951052 -0.016417 -0.005)
(-0.0942309 -0.0186449 -0.005)
(-0.0942309 -0.0186449 0.005)
(-0.0932465 -0.0208264 -0.005)
(-0.0932465 -0.0208264 0.005)
(-0.0921546 -0.0229562 0.005)
(-0.0921546 -0.0229562 -0.005)
(-0.090958 -0.0250289 -0.005)
(-0.090958 -0.0250289 0.005)
(-0.0896595 -0.0270394 -0.005)
(-0.0896595 -0.0270394 0.005)
(-0.0882624 -0.0289826 -0.005)
(-0.0882624 -0.0289826 0.005)
(-0.0867701 -0.0308538 0.005)
(-0.0867701 -0.0308538 -0.005)
(-0.0851865 -0.0326483 -0.005)
(-0.0851865 -0.0326483 0.005)
(-0.0835154 -0.0343616 -0.005)
(-0.0835154 -0.0343616 0.005)
(-0.0817609 -0.0359895 0.005)
(-0.0817609 -0.0359895 -0.005)
(-0.0799275 -0.0375279 -0.005)
(-0.0799275 -0.0375279 0.005)
(-0.0780197 -0.038973 -0.005)
(-0.0780197 -0.038973 0.005)
(-0.0760422 -0.0403212 0.005)
(-0.0760422 -0.0403212 -0.005)
(-0.074 -0.0415692 0.005)
(-0.074 -0.0415692 -0.005)
(-0.0718981 -0.0427138 0.005)
(-0.0718981 -0.0427138 -0.005)
(-0.0697418 -0.0437523 0.005)
(-0.0697418 -0.0437523 -0.005)
(-0.0675364 -0.0446819 0.005)
(-0.0675364 -0.0446819 -0.005)
(-0.0652874 -0.0455005 -0.005)
(-0.0652874 -0.0455005 0.005)
(-0.0630003 -0.046206 -0.005)
(-0.0630003 -0.046206 0.005)
(-0.060681 -0.0467965 -0.005)
(-0.060681 -0.0467965 0.005)
(-0.0583351 -0.0472708 -0.005)
(-0.0583351 -0.0472708 0.005)
(-0.0559685 -0.0476275 0.005)
(-0.0559685 -0.0476275 -0.005)
(-0.053587 -0.0478658 -0.005)
(-0.053587 -0.0478658 0.005)
(-0.0511967 -0.0479851 -0.005)
(-0.0511967 -0.0479851 0.005)
(-0.0488033 -0.0479851 -0.005)
(-0.0488033 -0.0479851 0.005)
(-0.046413 -0.0478658 -0.005)
(-0.046413 -0.0478658 0.005)
(-0.0440315 -0.0476275 -0.005)
(-0.0440315 -0.0476275 0.005)
(-0.0416649 -0.0472708 -0.005)
(-0.0416649 -0.0472708 0.005)
(-0.039319 -0.0467965 -0.005)
(-0.039319 -0.0467965 0.005)
(-0.0369997 -0.046206 0.005)
(-0.0369997 -0.046206 -0.005)
(-0.0347126 -0.0455005 0.005)
(-0.0347126 -0.0455005 -0.005)
(-0.0324636 -0.0446819 0.005)
(-0.0324636 -0.0446819 -0.005)
(-0.0302582 -0.0437523 0.005)
(-0.0302582 -0.0437523 -0.005)
(-0.0281019 -0.0427138 0.005)
(-0.026 -0.0415692 0.005)
(-0.0281019 -0.0427138 -0.005)
(-0.026 -0.0415692 -0.005)
(-0.0239578 -0.0403212 0.005)
(-0.0239578 -0.0403212 -0.005)
(-0.0219803 -0.038973 0.005)
(-0.0219803 -0.038973 -0.005)
(-0.0200725 -0.0375279 0.005)
(-0.0200725 -0.0375279 -0.005)
(-0.0182391 -0.0359895 0.005)
(-0.0182391 -0.0359895 -0.005)
(-0.0164846 -0.0343616 0.005)
(-0.0164846 -0.0343616 -0.005)
(-0.0148135 -0.0326483 0.005)
(-0.0148135 -0.0326483 -0.005)
(-0.0132299 -0.0308538 -0.005)
(-0.0132299 -0.0308538 0.005)
(-0.0117376 -0.0289826 -0.005)
(-0.0117376 -0.0289826 0.005)
(-0.0103405 -0.0270394 -0.005)
(-0.0103405 -0.0270394 0.005)
(-0.00904204 -0.0250289 -0.005)
(-0.00904204 -0.0250289 0.005)
(-0.00784536 -0.0229562 -0.005)
(-0.00784536 -0.0229562 0.005)
(-0.00675349 -0.0208264 0.005)
(-0.00675349 -0.0208264 -0.005)
(-0.00576914 -0.0186449 0.005)
(-0.00576914 -0.0186449 -0.005)
(-0.00489475 -0.016417 0.005)
(-0.00413251 -0.0141482 0.005)
(-0.00489475 -0.016417 -0.005)
(-0.00413251 -0.0141482 -0.005)
(-0.00348429 -0.0118444 0.005)
(-0.00348429 -0.0118444 -0.005)
(-0.00295172 -0.00951101 0.005)
(-0.00295172 -0.00951101 -0.005)
(-0.00253612 -0.00715403 0.005)
(-0.00253612 -0.00715403 -0.005)
(-0.00223852 -0.00477926 0.005)
(-0.00223852 -0.00477926 -0.005)
(-0.00205967 -0.0023926 0.005)
(-0.00205967 -0.0023926 -0.005)
)


// edges:

252
(
(0 1)
(2 3)
(4 2)
(5 4)
(1 6)
(6 7)
(8 5)
(9 8)
(7 10)
(10 11)
(12 9)
(11 13)
(14 12)
(15 14)
(13 16)
(16 17)
(18 15)
(17 19)
(20 18)
(19 21)
(21 22)
(23 20)
(24 23)
(22 25)
(25 26)
(27 24)
(26 28)
(29 27)
(30 29)
(31 30)
(28 32)
(32 33)
(34 31)
(33 35)
(36 34)
(37 36)
(35 38)
(38 39)
(40 37)
(39 41)
(42 40)
(41 43)
(44 42)
(43 45)
(46 44)
(45 47)
(48 46)
(47 49)
(50 48)
(49 51)
(52 50)
(51 53)
(54 52)
(53 55)
(56 54)
(57 56)
(55 58)
(58 59)
(60 57)
(59 61)
(62 60)
(61 63)
(64 62)
(63 65)
(66 64)
(65 67)
(68 66)
(67 69)
(70 68)
(69 71)
(72 70)
(71 73)
(74 72)
(75 74)
(73 76)
(76 77)
(78 75)
(77 79)
(79 80)
(81 78)
(80 82)
(83 81)
(82 84)
(85 83)
(84 86)
(87 85)
(86 88)
(89 87)
(88 90)
(91 89)
(90 92)
(93 91)
(94 93)
(92 95)
(96 94)
(95 97)
(98 96)
(97 99)
(100 98)
(101 100)
(99 102)
(102 103)
(104 101)
(105 104)
(103 106)
(106 107)
(108 105)
(109 108)
(107 110)
(110 111)
(112 109)
(111 113)
(114 112)
(115 114)
(113 116)
(116 117)
(118 115)
(117 119)
(120 118)
(119 121)
(122 120)
(121 123)
(123 124)
(125 122)
(126 125)
(124 127)
(128 126)
(127 129)
(129 130)
(131 128)
(132 131)
(130 133)
(134 132)
(133 135)
(136 134)
(135 137)
(137 138)
(139 136)
(140 139)
(138 141)
(141 142)
(143 140)
(142 144)
(145 143)
(146 145)
(144 147)
(147 148)
(149 146)
(148 150)
(151 149)
(150 152)
(153 151)
(154 153)
(152 155)
(155 156)
(157 154)
(156 158)
(159 157)
(160 159)
(158 161)
(161 162)
(163 160)
(162 164)
(165 163)
(166 165)
(164 167)
(168 166)
(167 169)
(170 168)
(169 171)
(172 170)
(171 173)
(174 172)
(173 175)
(175 176)
(177 174)
(176 178)
(179 177)
(178 180)
(181 179)
(180 182)
(183 181)
(184 183)
(182 185)
(185 186)
(187 184)
(186 188)
(189 187)
(188 190)
(191 189)
(190 192)
(193 191)
(192 194)
(195 193)
(194 196)
(197 195)
(196 198)
(199 197)
(200 199)
(198 201)
(202 200)
(201 203)
(204 202)
(203 205)
(206 204)
(205 207)
(208 206)
(209 208)
(207 210)
(210 211)
(212 209)
(211 213)
(214 212)
(213 215)
(216 214)
(215 217)
(218 216)
(217 219)
(220 218)
(219 221)
(222 220)
(221 223)
(223 224)
(225 222)
(224 226)
(227 225)
(226 228)
(229 227)
(228 230)
(231 229)
(230 232)
(233 231)
(234 233)
(232 235)
(236 234)
(235 237)
(238 236)
(239 238)
(237 240)
(240 241)
(242 239)
(241 243)
(244 242)
(243 245)
(246 244)
(245 247)
(248 246)
(247 249)
(250 248)
(3 250)
(249 251)
(251 0)
)

// * * * * * * * * * * * * * * * * * * * * * * * * * * * * * * * * * * * * * //


// ************************************************************************* //
