/*--------------------------------*- C++ -*----------------------------------*\
  =========                 |
  \\      /  F ield         | OpenFOAM: The Open Source CFD Toolbox
   \\    /   O peration     | Website:  https://openfoam.org
    \\  /    A nd           | Version:  9
     \\/     M anipulation  |
\*---------------------------------------------------------------------------*/
FoamFile
{
    format      ascii;
    class       extendedFeatureEdgeMesh;
    location    "constant/extendedFeatureEdgeMesh";
    object      rollRight.extendedFeatureEdgeMesh;
}
// * * * * * * * * * * * * * * * * * * * * * * * * * * * * * * * * * * * * * //

// points

252
(
(0.098 0 -0.005)
(0.0979403 0.0023926 -0.005)
(0.0979403 0.0023926 0.005)
(0.098 0 0.005)
(0.0977615 0.00477926 0.005)
(0.0974639 0.00715403 0.005)
(0.0977615 0.00477926 -0.005)
(0.0974639 0.00715403 -0.005)
(0.0970483 0.00951101 0.005)
(0.0965157 0.0118444 0.005)
(0.0970483 0.00951101 -0.005)
(0.0965157 0.0118444 -0.005)
(0.0958675 0.0141482 0.005)
(0.0958675 0.0141482 -0.005)
(0.0951052 0.016417 0.005)
(0.0942309 0.0186449 0.005)
(0.0951052 0.016417 -0.005)
(0.0942309 0.0186449 -0.005)
(0.0932465 0.0208264 0.005)
(0.0932465 0.0208264 -0.005)
(0.0921546 0.0229562 0.005)
(0.0921546 0.0229562 -0.005)
(0.090958 0.0250289 -0.005)
(0.090958 0.0250289 0.005)
(0.0896595 0.0270394 0.005)
(0.0896595 0.0270394 -0.005)
(0.0882624 0.0289826 -0.005)
(0.0882624 0.0289826 0.005)
(0.0867701 0.0308538 -0.005)
(0.0867701 0.0308538 0.005)
(0.0851865 0.0326483 0.005)
(0.0835154 0.0343616 0.005)
(0.0851865 0.0326483 -0.005)
(0.0835154 0.0343616 -0.005)
(0.0817609 0.0359895 0.005)
(0.0817609 0.0359895 -0.005)
(0.0799275 0.0375279 0.005)
(0.0780197 0.038973 0.005)
(0.0799275 0.0375279 -0.005)
(0.0780197 0.038973 -0.005)
(0.0760422 0.0403212 0.005)
(0.0760422 0.0403212 -0.005)
(0.074 0.0415692 0.005)
(0.074 0.0415692 -0.005)
(0.0718981 0.0427138 0.005)
(0.0718981 0.0427138 -0.005)
(0.0697418 0.0437523 0.005)
(0.0697418 0.0437523 -0.005)
(0.0675364 0.0446819 0.005)
(0.0675364 0.0446819 -0.005)
(0.0652874 0.0455005 0.005)
(0.0652874 0.0455005 -0.005)
(0.0630003 0.046206 0.005)
(0.0630003 0.046206 -0.005)
(0.060681 0.0467965 0.005)
(0.060681 0.0467965 -0.005)
(0.0583351 0.0472708 0.005)
(0.0559685 0.0476275 0.005)
(0.0583351 0.0472708 -0.005)
(0.0559685 0.0476275 -0.005)
(0.053587 0.0478658 0.005)
(0.053587 0.0478658 -0.005)
(0.0511967 0.0479851 0.005)
(0.0511967 0.0479851 -0.005)
(0.0488033 0.0479851 0.005)
(0.0488033 0.0479851 -0.005)
(0.046413 0.0478658 0.005)
(0.046413 0.0478658 -0.005)
(0.0440315 0.0476275 0.005)
(0.0440315 0.0476275 -0.005)
(0.0416649 0.0472708 0.005)
(0.0416649 0.0472708 -0.005)
(0.039319 0.0467965 0.005)
(0.039319 0.0467965 -0.005)
(0.0369997 0.046206 0.005)
(0.0347126 0.0455005 0.005)
(0.0369997 0.046206 -0.005)
(0.0347126 0.0455005 -0.005)
(0.0324636 0.0446819 0.005)
(0.0324636 0.0446819 -0.005)
(0.0302582 0.0437523 -0.005)
(0.0302582 0.0437523 0.005)
(0.0281019 0.0427138 -0.005)
(0.0281019 0.0427138 0.005)
(0.026 0.0415692 -0.005)
(0.026 0.0415692 0.005)
(0.0239578 0.0403212 -0.005)
(0.0239578 0.0403212 0.005)
(0.0219803 0.038973 -0.005)
(0.0219803 0.038973 0.005)
(0.0200725 0.0375279 -0.005)
(0.0200725 0.0375279 0.005)
(0.0182391 0.0359895 -0.005)
(0.0182391 0.0359895 0.005)
(0.0164846 0.0343616 0.005)
(0.0164846 0.0343616 -0.005)
(0.0148135 0.0326483 0.005)
(0.0148135 0.0326483 -0.005)
(0.0132299 0.0308538 0.005)
(0.0132299 0.0308538 -0.005)
(0.0117376 0.0289826 0.005)
(0.0103405 0.0270394 0.005)
(0.0117376 0.0289826 -0.005)
(0.0103405 0.0270394 -0.005)
(0.00904204 0.0250289 0.005)
(0.00784536 0.0229562 0.005)
(0.00904204 0.0250289 -0.005)
(0.00784536 0.0229562 -0.005)
(0.00675349 0.0208264 0.005)
(0.00576914 0.0186449 0.005)
(0.00675349 0.0208264 -0.005)
(0.00576914 0.0186449 -0.005)
(0.00489475 0.016417 0.005)
(0.00489475 0.016417 -0.005)
(0.00413251 0.0141482 0.005)
(0.00348429 0.0118444 0.005)
(0.00413251 0.0141482 -0.005)
(0.00348429 0.0118444 -0.005)
(0.00295172 0.00951101 0.005)
(0.00295172 0.00951101 -0.005)
(0.00253612 0.00715403 0.005)
(0.00253612 0.00715403 -0.005)
(0.00223852 0.00477926 0.005)
(0.00223852 0.00477926 -0.005)
(0.00205967 0.0023926 -0.005)
(0.00205967 0.0023926 0.005)
(0.002 -1.64652e-16 0.005)
(0.002 -1.64652e-16 -0.005)
(0.00205967 -0.0023926 0.005)
(0.00205967 -0.0023926 -0.005)
(0.00223852 -0.00477926 -0.005)
(0.00223852 -0.00477926 0.005)
(0.00253612 -0.00715403 0.005)
(0.00253612 -0.00715403 -0.005)
(0.00295172 -0.00951101 0.005)
(0.00295172 -0.00951101 -0.005)
(0.00348429 -0.0118444 0.005)
(0.00348429 -0.0118444 -0.005)
(0.00413251 -0.0141482 -0.005)
(0.00413251 -0.0141482 0.005)
(0.00489475 -0.016417 0.005)
(0.00489475 -0.016417 -0.005)
(0.00576914 -0.0186449 -0.005)
(0.00576914 -0.0186449 0.005)
(0.00675349 -0.0208264 -0.005)
(0.00675349 -0.0208264 0.005)
(0.00784536 -0.0229562 0.005)
(0.00784536 -0.0229562 -0.005)
(0.00904204 -0.0250289 -0.005)
(0.00904204 -0.0250289 0.005)
(0.0103405 -0.0270394 -0.005)
(0.0103405 -0.0270394 0.005)
(0.0117376 -0.0289826 -0.005)
(0.0117376 -0.0289826 0.005)
(0.0132299 -0.0308538 0.005)
(0.0132299 -0.0308538 -0.005)
(0.0148135 -0.0326483 -0.005)
(0.0148135 -0.0326483 0.005)
(0.0164846 -0.0343616 -0.005)
(0.0164846 -0.0343616 0.005)
(0.0182391 -0.0359895 0.005)
(0.0182391 -0.0359895 -0.005)
(0.0200725 -0.0375279 -0.005)
(0.0200725 -0.0375279 0.005)
(0.0219803 -0.038973 -0.005)
(0.0219803 -0.038973 0.005)
(0.0239578 -0.0403212 0.005)
(0.0239578 -0.0403212 -0.005)
(0.026 -0.0415692 0.005)
(0.026 -0.0415692 -0.005)
(0.0281019 -0.0427138 0.005)
(0.0281019 -0.0427138 -0.005)
(0.0302582 -0.0437523 0.005)
(0.0302582 -0.0437523 -0.005)
(0.0324636 -0.0446819 0.005)
(0.0324636 -0.0446819 -0.005)
(0.0347126 -0.0455005 -0.005)
(0.0347126 -0.0455005 0.005)
(0.0369997 -0.046206 -0.005)
(0.0369997 -0.046206 0.005)
(0.039319 -0.0467965 -0.005)
(0.039319 -0.0467965 0.005)
(0.0416649 -0.0472708 -0.005)
(0.0416649 -0.0472708 0.005)
(0.0440315 -0.0476275 0.005)
(0.0440315 -0.0476275 -0.005)
(0.046413 -0.0478658 -0.005)
(0.046413 -0.0478658 0.005)
(0.0488033 -0.0479851 -0.005)
(0.0488033 -0.0479851 0.005)
(0.0511967 -0.0479851 -0.005)
(0.0511967 -0.0479851 0.005)
(0.053587 -0.0478658 -0.005)
(0.053587 -0.0478658 0.005)
(0.0559685 -0.0476275 -0.005)
(0.0559685 -0.0476275 0.005)
(0.0583351 -0.0472708 -0.005)
(0.0583351 -0.0472708 0.005)
(0.060681 -0.0467965 -0.005)
(0.060681 -0.0467965 0.005)
(0.0630003 -0.046206 0.005)
(0.0630003 -0.046206 -0.005)
(0.0652874 -0.0455005 0.005)
(0.0652874 -0.0455005 -0.005)
(0.0675364 -0.0446819 0.005)
(0.0675364 -0.0446819 -0.005)
(0.0697418 -0.0437523 0.005)
(0.0697418 -0.0437523 -0.005)
(0.0718981 -0.0427138 0.005)
(0.074 -0.0415692 0.005)
(0.0718981 -0.0427138 -0.005)
(0.074 -0.0415692 -0.005)
(0.0760422 -0.0403212 0.005)
(0.0760422 -0.0403212 -0.005)
(0.0780197 -0.038973 0.005)
(0.0780197 -0.038973 -0.005)
(0.0799275 -0.0375279 0.005)
(0.0799275 -0.0375279 -0.005)
(0.0817609 -0.0359895 0.005)
(0.0817609 -0.0359895 -0.005)
(0.0835154 -0.0343616 0.005)
(0.0835154 -0.0343616 -0.005)
(0.0851865 -0.0326483 0.005)
(0.0851865 -0.0326483 -0.005)
(0.0867701 -0.0308538 -0.005)
(0.0867701 -0.0308538 0.005)
(0.0882624 -0.0289826 -0.005)
(0.0882624 -0.0289826 0.005)
(0.0896595 -0.0270394 -0.005)
(0.0896595 -0.0270394 0.005)
(0.090958 -0.0250289 -0.005)
(0.090958 -0.0250289 0.005)
(0.0921546 -0.0229562 -0.005)
(0.0921546 -0.0229562 0.005)
(0.0932465 -0.0208264 0.005)
(0.0932465 -0.0208264 -0.005)
(0.0942309 -0.0186449 0.005)
(0.0942309 -0.0186449 -0.005)
(0.0951052 -0.016417 0.005)
(0.0958675 -0.0141482 0.005)
(0.0951052 -0.016417 -0.005)
(0.0958675 -0.0141482 -0.005)
(0.0965157 -0.0118444 0.005)
(0.0965157 -0.0118444 -0.005)
(0.0970483 -0.00951101 0.005)
(0.0970483 -0.00951101 -0.005)
(0.0974639 -0.00715403 0.005)
(0.0974639 -0.00715403 -0.005)
(0.0977615 -0.00477926 0.005)
(0.0977615 -0.00477926 -0.005)
(0.0979403 -0.0023926 0.005)
(0.0979403 -0.0023926 -0.005)
)

// edges

252
(
(0 1)
(2 3)
(4 2)
(5 4)
(1 6)
(6 7)
(8 5)
(9 8)
(7 10)
(10 11)
(12 9)
(11 13)
(14 12)
(15 14)
(13 16)
(16 17)
(18 15)
(17 19)
(20 18)
(19 21)
(21 22)
(23 20)
(24 23)
(22 25)
(25 26)
(27 24)
(26 28)
(29 27)
(30 29)
(31 30)
(28 32)
(32 33)
(34 31)
(33 35)
(36 34)
(37 36)
(35 38)
(38 39)
(40 37)
(39 41)
(42 40)
(41 43)
(44 42)
(43 45)
(46 44)
(45 47)
(48 46)
(47 49)
(50 48)
(49 51)
(52 50)
(51 53)
(54 52)
(53 55)
(56 54)
(57 56)
(55 58)
(58 59)
(60 57)
(59 61)
(62 60)
(61 63)
(64 62)
(63 65)
(66 64)
(65 67)
(68 66)
(67 69)
(70 68)
(69 71)
(72 70)
(71 73)
(74 72)
(75 74)
(73 76)
(76 77)
(78 75)
(77 79)
(79 80)
(81 78)
(80 82)
(83 81)
(82 84)
(85 83)
(84 86)
(87 85)
(86 88)
(89 87)
(88 90)
(91 89)
(90 92)
(93 91)
(94 93)
(92 95)
(96 94)
(95 97)
(98 96)
(97 99)
(100 98)
(101 100)
(99 102)
(102 103)
(104 101)
(105 104)
(103 106)
(106 107)
(108 105)
(109 108)
(107 110)
(110 111)
(112 109)
(111 113)
(114 112)
(115 114)
(113 116)
(116 117)
(118 115)
(117 119)
(120 118)
(119 121)
(122 120)
(121 123)
(123 124)
(125 122)
(126 125)
(124 127)
(128 126)
(127 129)
(129 130)
(131 128)
(132 131)
(130 133)
(134 132)
(133 135)
(136 134)
(135 137)
(137 138)
(139 136)
(140 139)
(138 141)
(141 142)
(143 140)
(142 144)
(145 143)
(146 145)
(144 147)
(147 148)
(149 146)
(148 150)
(151 149)
(150 152)
(153 151)
(154 153)
(152 155)
(155 156)
(157 154)
(156 158)
(159 157)
(160 159)
(158 161)
(161 162)
(163 160)
(162 164)
(165 163)
(166 165)
(164 167)
(168 166)
(167 169)
(170 168)
(169 171)
(172 170)
(171 173)
(174 172)
(173 175)
(175 176)
(177 174)
(176 178)
(179 177)
(178 180)
(181 179)
(180 182)
(183 181)
(184 183)
(182 185)
(185 186)
(187 184)
(186 188)
(189 187)
(188 190)
(191 189)
(190 192)
(193 191)
(192 194)
(195 193)
(194 196)
(197 195)
(196 198)
(199 197)
(200 199)
(198 201)
(202 200)
(201 203)
(204 202)
(203 205)
(206 204)
(205 207)
(208 206)
(209 208)
(207 210)
(210 211)
(212 209)
(211 213)
(214 212)
(213 215)
(216 214)
(215 217)
(218 216)
(217 219)
(220 218)
(219 221)
(222 220)
(221 223)
(223 224)
(225 222)
(224 226)
(227 225)
(226 228)
(229 227)
(228 230)
(231 229)
(230 232)
(233 231)
(234 233)
(232 235)
(236 234)
(235 237)
(238 236)
(239 238)
(237 240)
(240 241)
(242 239)
(241 243)
(244 242)
(243 245)
(246 244)
(245 247)
(248 246)
(247 249)
(250 248)
(3 250)
(249 251)
(251 0)
)

// concaveStart mixedStart nonFeatureStart
0 0 0
// internalStart flatStart openStart multipleStart
252 252 252 252
// normals

432
(
(0.999689 0.0249417 -0)
(0 0 -1)
(0.999689 0.0249417 0)
(0 0 1)
(0.997205 0.0747097 0)
(0 0 1)
(0.992239 0.124344 0)
(0 0 1)
(0.997205 0.0747097 -0)
(0 0 -1)
(0.992239 0.124344 0)
(0 0 -1)
(0.984808 0.173649 0)
(0.974926 0.222527 0)
(0 0 1)
(0.984808 0.173649 -0)
(0.974926 0.222527 0)
(0 0 -1)
(0.962623 0.270845 0)
(0 0 1)
(0.962623 0.270845 -0)
(0 0 -1)
(0.947925 0.318495 0)
(0 0 1)
(0.930885 0.365311 0)
(0 0 1)
(0.947925 0.318495 -0)
(0 0 -1)
(0.930885 0.365311 0)
(0 0 -1)
(0.911495 0.411311 0)
(0 0 1)
(0.911495 0.411311 -0)
(0 0 -1)
(0.88987 0.456215 0)
(0.88987 0.456215 -0)
(0.866039 0.499977 -0)
(0 0 -1)
(0.866039 0.499977 0)
(0 0 1)
(0.840029 0.542541 0)
(0.840029 0.542541 0)
(0.811932 0.583752 -0)
(0 0 -1)
(0.811932 0.583752 0)
(0 0 1)
(0.781818 0.623507 -0)
(0 0 -1)
(0.781818 0.623507 0)
(0 0 1)
(0.749791 0.661675 0)
(0.715869 0.698235 0)
(0 0 1)
(0.749791 0.661675 -0)
(0.715869 0.698235 0)
(0 0 -1)
(0.680164 0.73306 0)
(0 0 1)
(0.680164 0.73306 -0)
(-0 -0 -1)
(0.642786 0.766046 0)
(0.603805 0.797132 0)
(0 0 1)
(0.642786 0.766046 -0)
(0.603805 0.797132 0)
(-0 -0 -1)
(0.563309 0.826246 0)
(0 0 1)
(0.563309 0.826246 -0)
(-0 -0 -1)
(0.521447 0.853284 0)
(0 0 1)
(0.521447 0.853284 -0)
(-0 -0 -1)
(0.478243 0.878227 0)
(0 0 1)
(0.478243 0.878227 -0)
(-0 -0 -1)
(0.433912 0.900955 0)
(0.433912 0.900955 -0)
(0.388415 0.921485 0)
(0 0 1)
(0.388415 0.921485 -0)
(-0 -0 -1)
(0.342031 0.939689 0)
(0 0 1)
(0.342031 0.939689 -0)
(-0 -0 -1)
(0.294765 0.95557 0)
(0 0 1)
(0.294765 0.95557 -0)
(-0 -0 -1)
(0.246731 0.969084 0)
(0 0 1)
(0.246731 0.969084 -0)
(-0 -0 -1)
(0.198173 0.980167 0)
(0.149039 0.988831 0)
(0 0 1)
(0.198173 0.980167 -0)
(0.149039 0.988831 0)
(-0 -0 -1)
(0.0995655 0.995031 0)
(0 0 1)
(0.0995655 0.995031 -0)
(-0 -0 -1)
(0.0498475 0.998757 0)
(0 0 1)
(0.0498475 0.998757 -0)
(-0 -0 -1)
(0 1 0)
(0 1 -0)
(-0.0498475 0.998757 0)
(0 0 1)
(-0.0498475 0.998757 0)
(0 -0 -1)
(-0.0995655 0.995031 0)
(0 0 1)
(-0.0995655 0.995031 0)
(0 -0 -1)
(-0.149039 0.988831 0)
(-0.149039 0.988831 0)
(-0.198173 0.980167 0)
(0 0 1)
(-0.198173 0.980167 0)
(0 -0 -1)
(-0.246731 0.969084 0)
(-0.294765 0.95557 0)
(0 0 1)
(-0.246731 0.969084 0)
(-0.294765 0.95557 0)
(0 -0 -1)
(-0.342031 0.939689 0)
(0 0 1)
(-0.342031 0.939689 0)
(0 -0 -1)
(-0.388415 0.921485 0)
(-0.388415 0.921485 0)
(-0.433912 0.900955 0)
(0 -0 -1)
(-0.433912 0.900955 0)
(0 0 1)
(-0.478243 0.878228 0)
(-0.478243 0.878228 0)
(-0.521446 0.853284 0)
(0 -0 -1)
(-0.521446 0.853284 0)
(0 0 1)
(-0.56331 0.826246 0)
(0 -0 -1)
(-0.56331 0.826246 0)
(0 0 1)
(-0.603803 0.797133 0)
(0 -0 -1)
(-0.603803 0.797133 0)
(0 0 1)
(-0.642786 0.766046 0)
(-0.642786 0.766046 0)
(-0.680164 0.73306 0)
(0 0 1)
(-0.680164 0.73306 0)
(0 -0 -1)
(-0.715869 0.698235 0)
(-0.715869 0.698235 0)
(-0.749792 0.661673 0)
(0 0 1)
(-0.749792 0.661673 0)
(0 -0 -1)
(-0.781818 0.623507 0)
(0 0 1)
(-0.811931 0.583753 0)
(0 0 1)
(-0.781818 0.623507 0)
(0 -0 -1)
(-0.811931 0.583753 0)
(0 -0 -1)
(-0.840037 0.542529 0)
(-0.866024 0.500002 0)
(0 0 1)
(-0.840037 0.542529 0)
(-0.866024 0.500002 0)
(0 -0 -1)
(-0.889874 0.456206 0)
(0 0 1)
(-0.911503 0.411294 0)
(0 0 1)
(-0.889874 0.456206 0)
(0 -0 -1)
(-0.911503 0.411294 0)
(0 -0 -1)
(-0.930873 0.365343 0)
(-0.930873 0.365343 0)
(-0.947932 0.318473 0)
(0 0 1)
(-0.962621 0.270853 0)
(0 0 1)
(-0.947932 0.318473 0)
(0 -0 -1)
(-0.962621 0.270853 0)
(0 -0 -1)
(-0.974929 0.222517 0)
(0 0 1)
(-0.974929 0.222517 0)
(0 -0 -1)
(-0.984808 0.173649 0)
(-0.984808 0.173649 0)
(-0.992239 0.124345 0)
(0 0 1)
(-0.992239 0.124345 0)
(0 -0 -1)
(-0.997204 0.0747278 0)
(0 -0 -1)
(-0.997204 0.0747278 0)
(0 0 1)
(-0.999689 0.0249316 0)
(-0.999689 0.0249316 0)
(-0.999689 -0.0249316 -0)
(0 0 1)
(-0.999689 -0.0249316 0)
(0 0 -1)
(-0.997204 -0.0747278 0)
(0 0 -1)
(-0.997204 -0.0747278 0)
(0 0 1)
(-0.992239 -0.124345 -0)
(0 0 1)
(-0.992239 -0.124345 0)
(0 0 -1)
(-0.984808 -0.173649 -0)
(0 0 1)
(-0.984808 -0.173649 0)
(0 0 -1)
(-0.974929 -0.222517 -0)
(-0.974929 -0.222517 0)
(-0.962621 -0.270853 0)
(0 0 -1)
(-0.962621 -0.270853 0)
(0 0 1)
(-0.947932 -0.318473 -0)
(0 0 1)
(-0.947932 -0.318473 0)
(0 0 -1)
(-0.930873 -0.365343 0)
(-0.930873 -0.365343 0)
(-0.911503 -0.411294 0)
(0 0 -1)
(-0.911503 -0.411294 0)
(0 0 1)
(-0.889874 -0.456206 -0)
(0 0 1)
(-0.889874 -0.456206 0)
(0 0 -1)
(-0.866024 -0.500002 0)
(-0.866024 -0.500002 0)
(-0.840037 -0.542529 0)
(0 0 -1)
(-0.840037 -0.542529 0)
(0 0 1)
(-0.811931 -0.583753 0)
(0 0 -1)
(-0.811931 -0.583753 0)
(0 0 1)
(-0.781818 -0.623507 -0)
(-0.781818 -0.623507 0)
(-0.749792 -0.661673 0)
(0 0 -1)
(-0.749792 -0.661673 0)
(0 0 1)
(-0.715869 -0.698235 0)
(0 0 -1)
(-0.715869 -0.698235 0)
(0 0 1)
(-0.680164 -0.73306 -0)
(0 0 1)
(-0.680164 -0.73306 0)
(0 0 -1)
(-0.642786 -0.766046 0)
(0 0 -1)
(-0.642786 -0.766046 0)
(0 0 1)
(-0.603803 -0.797133 0)
(0 0 -1)
(-0.603803 -0.797133 0)
(0 0 1)
(-0.56331 -0.826246 0)
(0 0 1)
(-0.56331 -0.826246 0)
(0 0 -1)
(-0.521446 -0.853284 -0)
(-0.521446 -0.853284 0)
(-0.478243 -0.878228 0)
(0 0 1)
(-0.478243 -0.878228 0)
(0 0 -1)
(-0.433912 -0.900955 0)
(0 0 1)
(-0.433912 -0.900955 0)
(0 0 -1)
(-0.388415 -0.921485 0)
(0 0 1)
(-0.388415 -0.921485 0)
(0 0 -1)
(-0.342031 -0.939689 0)
(-0.342031 -0.939689 0)
(-0.294765 -0.95557 0)
(0 0 -1)
(-0.294765 -0.95557 0)
(0 0 1)
(-0.246731 -0.969084 0)
(-0.246731 -0.969084 0)
(-0.198173 -0.980167 0)
(0 0 -1)
(-0.198173 -0.980167 0)
(0 0 1)
(-0.149039 -0.988831 -0)
(0 0 1)
(-0.149039 -0.988831 0)
(0 0 -1)
(-0.0995655 -0.995031 0)
(-0.0995655 -0.995031 0)
(-0.0498475 -0.998757 0)
(0 0 -1)
(-0.0498475 -0.998757 0)
(0 0 1)
(0 -1 0)
(0 -1 0)
(0.0498475 -0.998757 0)
(0 0 -1)
(0.0498475 -0.998757 0)
(0 0 1)
(0.0995655 -0.995031 0)
(0 0 -1)
(0.0995655 -0.995031 0)
(0 0 1)
(0.149039 -0.988831 0)
(0 0 -1)
(0.149039 -0.988831 0)
(0 0 1)
(0.198173 -0.980167 0)
(0 0 -1)
(0.198173 -0.980167 0)
(0 0 1)
(0.246731 -0.969084 0)
(0.246731 -0.969084 0)
(0.294765 -0.95557 0)
(0 0 1)
(0.294765 -0.95557 0)
(0 0 -1)
(0.342031 -0.939689 0)
(0.342031 -0.939689 0)
(0.388415 -0.921485 0)
(0 0 1)
(0.388415 -0.921485 0)
(0 0 -1)
(0.433912 -0.900955 0)
(0 0 1)
(0.478243 -0.878227 0)
(0 0 1)
(0.433912 -0.900955 0)
(0 0 -1)
(0.478243 -0.878227 0)
(0 0 -1)
(0.521447 -0.853284 0)
(0.521447 -0.853284 0)
(0.563309 -0.826246 0)
(0 0 1)
(0.563309 -0.826246 0)
(0 0 -1)
(0.603805 -0.797132 0)
(0 0 1)
(0.603805 -0.797132 0)
(0 0 -1)
(0.642786 -0.766046 0)
(0 0 1)
(0.642786 -0.766046 0)
(0 0 -1)
(0.680164 -0.73306 0)
(0.680164 -0.73306 0)
(0.715869 -0.698235 0)
(0 0 1)
(0.715869 -0.698235 0)
(0 0 -1)
(0.749791 -0.661675 0)
(0 0 -1)
(0.749791 -0.661675 0)
(0 0 1)
(0.781818 -0.623507 0)
(0 0 -1)
(0.781818 -0.623507 0)
(0 0 1)
(0.811932 -0.583752 0)
(0.811932 -0.583752 0)
(0.840029 -0.542541 0)
(0 0 -1)
(0.840029 -0.542541 0)
(0 0 1)
(0.866039 -0.499977 0)
(0 0 -1)
(0.866039 -0.499977 0)
(0 0 1)
(0.88987 -0.456215 0)
(0.88987 -0.456215 0)
(0.911495 -0.411311 0)
(0 0 1)
(0.911495 -0.411311 0)
(0 0 -1)
(0.930885 -0.365311 0)
(0 0 1)
(0.947925 -0.318495 0)
(0.930885 -0.365311 0)
(0 0 -1)
(0.947925 -0.318495 0)
(0.962623 -0.270845 0)
(0 0 1)
(0.962623 -0.270845 0)
(0 0 -1)
(0.974926 -0.222527 0)
(0.974926 -0.222527 0)
(0.984808 -0.173649 0)
(0 0 1)
(0.984808 -0.173649 0)
(0 0 -1)
(0.992239 -0.124344 0)
(0.992239 -0.124344 0)
(0.997205 -0.0747097 0)
(0 0 1)
(0.999689 -0.0249417 0)
(0 0 1)
(0.997205 -0.0747097 0)
(0 0 -1)
(0.999689 -0.0249417 0)
(0 0 -1)
)

// normal volume types

432
(
0
0
0
0
0
0
0
0
0
0
0
0
0
0
0
0
0
0
0
0
0
0
0
0
0
0
0
0
0
0
0
0
0
0
0
0
0
0
0
0
0
0
0
0
0
0
0
0
0
0
0
0
0
0
0
0
0
0
0
0
0
0
0
0
0
0
0
0
0
0
0
0
0
0
0
0
0
0
0
0
0
0
0
0
0
0
0
0
0
0
0
0
0
0
0
0
0
0
0
0
0
0
0
0
0
0
0
0
0
0
0
0
0
0
0
0
0
0
0
0
0
0
0
0
0
0
0
0
0
0
0
0
0
0
0
0
0
0
0
0
0
0
0
0
0
0
0
0
0
0
0
0
0
0
0
0
0
0
0
0
0
0
0
0
0
0
0
0
0
0
0
0
0
0
0
0
0
0
0
0
0
0
0
0
0
0
0
0
0
0
0
0
0
0
0
0
0
0
0
0
0
0
0
0
0
0
0
0
0
0
0
0
0
0
0
0
0
0
0
0
0
0
0
0
0
0
0
0
0
0
0
0
0
0
0
0
0
0
0
0
0
0
0
0
0
0
0
0
0
0
0
0
0
0
0
0
0
0
0
0
0
0
0
0
0
0
0
0
0
0
0
0
0
0
0
0
0
0
0
0
0
0
0
0
0
0
0
0
0
0
0
0
0
0
0
0
0
0
0
0
0
0
0
0
0
0
0
0
0
0
0
0
0
0
0
0
0
0
0
0
0
0
0
0
0
0
0
0
0
0
0
0
0
0
0
0
0
0
0
0
0
0
0
0
0
0
0
0
0
0
0
0
0
0
0
0
0
0
0
0
0
0
0
0
0
0
0
0
0
0
0
0
0
0
0
0
0
0
0
0
0
0
0
0
0
0
0
0
0
0
0
0
0
0
0
0
0
0
0
0
0
0
0
0
0
0
0
0
0
0
0
0
0
0
0
0
0
0
0
0
0
0
0
0
0
0
0
0
0
0
0
0
)

// normalDirections

252
(
2(1 -1)
2(1 -1)
2(1 -1)
2(1 -1)
2(1 -1)
2(1 -1)
2(1 -1)
2(1 -1)
2(1 -1)
2(1 -1)
2(1 -1)
2(1 -1)
2(1 -1)
2(1 -1)
2(1 -1)
2(1 -1)
2(1 -1)
2(1 -1)
2(1 -1)
2(1 -1)
2(1 -1)
2(1 -1)
2(1 -1)
2(1 -1)
2(1 -1)
2(1 -1)
2(1 -1)
2(1 -1)
2(1 -1)
2(1 -1)
2(1 -1)
2(1 -1)
2(1 -1)
2(1 -1)
2(1 -1)
2(1 -1)
2(1 -1)
2(1 -1)
2(1 -1)
2(1 -1)
2(1 -1)
2(1 -1)
2(1 -1)
2(1 -1)
2(1 -1)
2(1 -1)
2(1 -1)
2(1 -1)
2(1 -1)
2(1 -1)
2(1 -1)
2(1 -1)
2(1 -1)
2(1 -1)
2(1 -1)
2(1 -1)
2(1 -1)
2(1 -1)
2(1 -1)
2(1 -1)
2(1 -1)
2(1 -1)
2(1 -1)
2(1 -1)
2(1 -1)
2(1 -1)
2(1 -1)
2(1 -1)
2(1 -1)
2(1 -1)
2(1 -1)
2(1 -1)
2(1 -1)
2(1 -1)
2(1 -1)
2(1 -1)
2(1 -1)
2(1 -1)
2(1 -1)
2(1 -1)
2(1 -1)
2(1 -1)
2(1 -1)
2(1 -1)
2(1 -1)
2(1 -1)
2(1 -1)
2(1 -1)
2(1 -1)
2(1 -1)
2(1 -1)
2(1 -1)
2(1 -1)
2(1 -1)
2(1 -1)
2(1 -1)
2(1 -1)
2(1 -1)
2(1 -1)
2(1 -1)
2(1 -1)
2(1 -1)
2(1 -1)
2(1 -1)
2(1 -1)
2(1 -1)
2(1 -1)
2(1 -1)
2(1 -1)
2(1 -1)
2(1 -1)
2(1 -1)
2(1 -1)
2(1 -1)
2(1 -1)
2(1 -1)
2(1 -1)
2(1 -1)
2(1 -1)
2(1 -1)
2(1 -1)
2(1 -1)
2(1 -1)
2(1 -1)
2(1 -1)
2(1 -1)
2(1 -1)
2(1 -1)
2(1 -1)
2(1 -1)
2(1 -1)
2(1 -1)
2(1 -1)
2(1 -1)
2(1 -1)
2(1 -1)
2(1 -1)
2(1 -1)
2(1 -1)
2(1 -1)
2(1 -1)
2(1 -1)
2(1 -1)
2(1 -1)
2(1 -1)
2(1 -1)
2(1 -1)
2(1 -1)
2(1 -1)
2(1 -1)
2(1 -1)
2(1 -1)
2(1 -1)
2(1 -1)
2(1 -1)
2(1 -1)
2(1 -1)
2(1 -1)
2(1 -1)
2(1 -1)
2(1 -1)
2(1 -1)
2(1 -1)
2(1 -1)
2(1 -1)
2(1 -1)
2(1 -1)
2(1 -1)
2(1 -1)
2(1 -1)
2(1 -1)
2(1 -1)
2(1 -1)
2(1 -1)
2(1 -1)
2(1 -1)
2(1 -1)
2(1 -1)
2(1 -1)
2(1 -1)
2(1 -1)
2(1 -1)
2(1 -1)
2(1 -1)
2(1 -1)
2(1 -1)
2(1 -1)
2(1 -1)
2(1 -1)
2(1 -1)
2(1 -1)
2(1 -1)
2(1 -1)
2(1 -1)
2(1 -1)
2(1 -1)
2(1 -1)
2(1 -1)
2(1 -1)
2(1 -1)
2(1 -1)
2(1 -1)
2(1 -1)
2(1 -1)
2(1 -1)
2(1 -1)
2(1 -1)
2(1 -1)
2(1 -1)
2(1 -1)
2(1 -1)
2(1 -1)
2(1 -1)
2(1 -1)
2(1 -1)
2(1 -1)
2(1 -1)
2(1 -1)
2(1 -1)
2(1 -1)
2(1 -1)
2(1 -1)
2(1 -1)
2(1 -1)
2(1 -1)
2(1 -1)
2(1 -1)
2(1 -1)
2(1 -1)
2(1 -1)
2(1 -1)
2(1 -1)
2(1 -1)
2(1 -1)
2(1 -1)
2(1 -1)
2(1 -1)
2(1 -1)
2(1 -1)
2(1 -1)
2(1 -1)
2(1 -1)
2(1 -1)
2(1 -1)
2(1 -1)
2(1 -1)
2(1 -1)
2(1 -1)
2(1 -1)
2(1 -1)
2(1 -1)
2(1 -1)
)

// edgeNormals

252
(
2(0 1)
2(2 3)
2(4 5)
2(6 7)
2(8 9)
2(10 11)
2(12 7)
2(13 14)
2(15 11)
2(16 17)
2(18 19)
2(20 21)
2(22 23)
2(24 25)
2(26 27)
2(28 29)
2(30 31)
2(32 33)
2(34 31)
2(35 33)
2(36 37)
2(38 39)
2(40 39)
2(41 37)
2(42 43)
2(44 45)
2(46 47)
2(48 49)
2(50 49)
2(51 52)
2(53 47)
2(54 55)
2(56 57)
2(58 59)
2(60 57)
2(61 62)
2(63 59)
2(64 65)
2(66 67)
2(68 69)
2(70 71)
2(72 73)
2(74 75)
2(76 77)
2(78 75)
2(79 77)
2(80 81)
2(82 83)
2(84 85)
2(86 87)
2(88 89)
2(90 91)
2(92 93)
2(94 95)
2(96 93)
2(97 98)
2(99 95)
2(100 101)
2(102 103)
2(104 105)
2(106 107)
2(108 109)
2(110 107)
2(111 109)
2(112 113)
2(114 115)
2(116 117)
2(118 119)
2(120 117)
2(121 119)
2(122 123)
2(124 125)
2(126 123)
2(127 128)
2(129 125)
2(130 131)
2(132 133)
2(134 135)
2(136 135)
2(137 133)
2(138 139)
2(140 141)
2(142 139)
2(143 141)
2(144 145)
2(146 147)
2(148 149)
2(150 151)
2(152 153)
2(154 155)
2(156 153)
2(157 155)
2(158 159)
2(160 161)
2(162 159)
2(163 161)
2(164 165)
2(166 167)
2(168 169)
2(170 171)
2(172 173)
2(174 175)
2(176 171)
2(177 178)
2(179 175)
2(180 181)
2(182 183)
2(184 185)
2(186 187)
2(188 189)
2(190 185)
2(191 189)
2(192 193)
2(194 195)
2(196 197)
2(198 199)
2(200 201)
2(202 203)
2(204 201)
2(205 203)
2(206 207)
2(208 209)
2(210 211)
2(212 213)
2(214 213)
2(215 211)
2(216 217)
2(218 219)
2(220 221)
2(222 223)
2(224 225)
2(226 227)
2(228 229)
2(230 231)
2(232 229)
2(233 231)
2(234 235)
2(236 237)
2(238 239)
2(240 241)
2(242 241)
2(243 239)
2(244 245)
2(246 247)
2(248 249)
2(250 251)
2(252 251)
2(253 249)
2(254 255)
2(256 257)
2(258 259)
2(260 261)
2(262 261)
2(263 259)
2(264 265)
2(266 267)
2(268 269)
2(270 271)
2(272 273)
2(274 275)
2(276 277)
2(278 279)
2(280 281)
2(282 283)
2(284 285)
2(286 287)
2(288 285)
2(289 287)
2(290 291)
2(292 293)
2(294 295)
2(296 297)
2(298 299)
2(300 301)
2(302 301)
2(303 299)
2(304 305)
2(306 307)
2(308 305)
2(309 307)
2(310 311)
2(312 313)
2(314 315)
2(316 317)
2(318 317)
2(319 315)
2(320 321)
2(322 323)
2(324 321)
2(325 323)
2(326 327)
2(328 329)
2(330 331)
2(332 333)
2(334 335)
2(336 337)
2(338 339)
2(340 341)
2(342 341)
2(343 339)
2(344 345)
2(346 347)
2(348 345)
2(349 347)
2(350 351)
2(352 353)
2(354 355)
2(356 357)
2(358 359)
2(360 361)
2(362 357)
2(363 361)
2(364 365)
2(366 367)
2(368 369)
2(370 371)
2(372 373)
2(374 375)
2(376 373)
2(377 375)
2(378 379)
2(380 381)
2(382 383)
2(384 385)
2(386 387)
2(388 389)
2(390 387)
2(391 389)
2(392 393)
2(394 395)
2(396 397)
2(398 399)
2(400 399)
2(401 397)
2(402 403)
2(404 405)
2(406 407)
2(408 407)
2(409 410)
2(411 410)
2(412 413)
2(414 415)
2(416 413)
2(417 415)
2(418 419)
2(420 421)
2(422 419)
2(423 421)
2(424 425)
2(426 427)
2(428 429)
2(430 431)
)

// featurePointNormals
0()
// featurePointEdges
0()
// regionEdges
0()


// ************************************************************************* //
