/*--------------------------------*- C++ -*----------------------------------*\
  =========                 |
  \\      /  F ield         | OpenFOAM: The Open Source CFD Toolbox
   \\    /   O peration     | Website:  https://openfoam.org
    \\  /    A nd           | Version:  9
     \\/     M anipulation  |
\*---------------------------------------------------------------------------*/
FoamFile
{
    format      ascii;
    class       extendedFeatureEdgeMesh;
    location    "constant/extendedFeatureEdgeMesh";
    object      rollRight_area.extendedFeatureEdgeMesh;
}
// * * * * * * * * * * * * * * * * * * * * * * * * * * * * * * * * * * * * * //

// points

252
(
(0.12 0 -0.01)
(0.119913 0.00348921 -0.01)
(0.119913 0.00348921 0.01)
(0.12 0 0.01)
(0.119652 0.00696975 0.01)
(0.119218 0.010433 0.01)
(0.119652 0.00696975 -0.01)
(0.119218 0.010433 -0.01)
(0.118612 0.0138702 0.01)
(0.117835 0.017273 0.01)
(0.118612 0.0138702 -0.01)
(0.117835 0.017273 -0.01)
(0.11689 0.0206329 0.01)
(0.11689 0.0206329 -0.01)
(0.115778 0.0239414 0.01)
(0.114503 0.0271904 0.01)
(0.115778 0.0239414 -0.01)
(0.114503 0.0271904 -0.01)
(0.113068 0.0303719 0.01)
(0.113068 0.0303719 -0.01)
(0.111476 0.0334778 0.01)
(0.111476 0.0334778 -0.01)
(0.10973 0.0365005 -0.01)
(0.10973 0.0365005 0.01)
(0.107837 0.0394324 0.01)
(0.107837 0.0394324 -0.01)
(0.105799 0.0422663 -0.01)
(0.105799 0.0422663 0.01)
(0.103623 0.0449951 -0.01)
(0.103623 0.0449951 0.01)
(0.101314 0.0476121 0.01)
(0.0988766 0.0501107 0.01)
(0.101314 0.0476121 -0.01)
(0.0988766 0.0501107 -0.01)
(0.096318 0.0524847 0.01)
(0.096318 0.0524847 -0.01)
(0.0936443 0.0547282 0.01)
(0.0908621 0.0568357 0.01)
(0.0936443 0.0547282 -0.01)
(0.0908621 0.0568357 -0.01)
(0.0879782 0.0588018 0.01)
(0.0879782 0.0588018 -0.01)
(0.085 0.0606218 0.01)
(0.085 0.0606218 -0.01)
(0.0819347 0.062291 0.01)
(0.0819347 0.062291 -0.01)
(0.0787901 0.0638054 0.01)
(0.0787901 0.0638054 -0.01)
(0.0755739 0.0651612 0.01)
(0.0755739 0.0651612 -0.01)
(0.0722941 0.0663549 0.01)
(0.0722941 0.0663549 -0.01)
(0.0689588 0.0673837 0.01)
(0.0689588 0.0673837 -0.01)
(0.0655765 0.068245 0.01)
(0.0655765 0.068245 -0.01)
(0.0621554 0.0689365 0.01)
(0.0587041 0.0694567 0.01)
(0.0621554 0.0689365 -0.01)
(0.0587041 0.0694567 -0.01)
(0.0552311 0.0698043 0.01)
(0.0552311 0.0698043 -0.01)
(0.0517451 0.0699782 0.01)
(0.0517451 0.0699782 -0.01)
(0.0482549 0.0699782 0.01)
(0.0482549 0.0699782 -0.01)
(0.0447689 0.0698043 0.01)
(0.0447689 0.0698043 -0.01)
(0.0412959 0.0694567 0.01)
(0.0412959 0.0694567 -0.01)
(0.0378446 0.0689365 0.01)
(0.0378446 0.0689365 -0.01)
(0.0344235 0.068245 0.01)
(0.0344235 0.068245 -0.01)
(0.0310412 0.0673837 0.01)
(0.0277059 0.0663549 0.01)
(0.0310412 0.0673837 -0.01)
(0.0277059 0.0663549 -0.01)
(0.0244261 0.0651612 0.01)
(0.0244261 0.0651612 -0.01)
(0.0212099 0.0638054 -0.01)
(0.0212099 0.0638054 0.01)
(0.0180653 0.062291 -0.01)
(0.0180653 0.062291 0.01)
(0.015 0.0606218 -0.01)
(0.015 0.0606218 0.01)
(0.0120218 0.0588018 -0.01)
(0.0120218 0.0588018 0.01)
(0.00913794 0.0568357 -0.01)
(0.00913794 0.0568357 0.01)
(0.00635571 0.0547282 -0.01)
(0.00635571 0.0547282 0.01)
(0.00368199 0.0524847 -0.01)
(0.00368199 0.0524847 0.01)
(0.00112342 0.0501107 0.01)
(0.00112342 0.0501107 -0.01)
(-0.00131363 0.0476121 0.01)
(-0.00131363 0.0476121 -0.01)
(-0.00362311 0.0449951 0.01)
(-0.00362311 0.0449951 -0.01)
(-0.00579928 0.0422663 0.01)
(-0.00783671 0.0394324 0.01)
(-0.00579928 0.0422663 -0.01)
(-0.00783671 0.0394324 -0.01)
(-0.00973036 0.0365005 0.01)
(-0.0114755 0.0334778 0.01)
(-0.00973036 0.0365005 -0.01)
(-0.0114755 0.0334778 -0.01)
(-0.0130678 0.0303719 0.01)
(-0.0145033 0.0271904 0.01)
(-0.0130678 0.0303719 -0.01)
(-0.0145033 0.0271904 -0.01)
(-0.0157785 0.0239414 0.01)
(-0.0157785 0.0239414 -0.01)
(-0.0168901 0.0206329 0.01)
(-0.0178354 0.017273 0.01)
(-0.0168901 0.0206329 -0.01)
(-0.0178354 0.017273 -0.01)
(-0.0186121 0.0138702 0.01)
(-0.0186121 0.0138702 -0.01)
(-0.0192182 0.010433 0.01)
(-0.0192182 0.010433 -0.01)
(-0.0196522 0.00696975 0.01)
(-0.0196522 0.00696975 -0.01)
(-0.019913 0.00348921 -0.01)
(-0.019913 0.00348921 0.01)
(-0.02 -2.40117e-16 0.01)
(-0.02 -2.40117e-16 -0.01)
(-0.019913 -0.00348921 0.01)
(-0.019913 -0.00348921 -0.01)
(-0.0196522 -0.00696975 -0.01)
(-0.0196522 -0.00696975 0.01)
(-0.0192182 -0.010433 0.01)
(-0.0192182 -0.010433 -0.01)
(-0.0186121 -0.0138702 0.01)
(-0.0186121 -0.0138702 -0.01)
(-0.0178354 -0.017273 0.01)
(-0.0178354 -0.017273 -0.01)
(-0.0168901 -0.0206329 -0.01)
(-0.0168901 -0.0206329 0.01)
(-0.0157785 -0.0239414 0.01)
(-0.0157785 -0.0239414 -0.01)
(-0.0145033 -0.0271904 0.01)
(-0.0145033 -0.0271904 -0.01)
(-0.0130678 -0.0303719 -0.01)
(-0.0130678 -0.0303719 0.01)
(-0.0114755 -0.0334778 0.01)
(-0.0114755 -0.0334778 -0.01)
(-0.00973036 -0.0365005 -0.01)
(-0.00973036 -0.0365005 0.01)
(-0.00783671 -0.0394324 -0.01)
(-0.00783671 -0.0394324 0.01)
(-0.00579928 -0.0422663 -0.01)
(-0.00579928 -0.0422663 0.01)
(-0.00362311 -0.0449951 0.01)
(-0.00362311 -0.0449951 -0.01)
(-0.00131363 -0.0476121 -0.01)
(-0.00131363 -0.0476121 0.01)
(0.00112342 -0.0501107 -0.01)
(0.00112342 -0.0501107 0.01)
(0.00368199 -0.0524847 0.01)
(0.00368199 -0.0524847 -0.01)
(0.00635571 -0.0547282 -0.01)
(0.00635571 -0.0547282 0.01)
(0.00913794 -0.0568357 -0.01)
(0.00913794 -0.0568357 0.01)
(0.0120218 -0.0588018 0.01)
(0.0120218 -0.0588018 -0.01)
(0.015 -0.0606218 0.01)
(0.015 -0.0606218 -0.01)
(0.0180653 -0.062291 0.01)
(0.0180653 -0.062291 -0.01)
(0.0212099 -0.0638054 0.01)
(0.0212099 -0.0638054 -0.01)
(0.0244261 -0.0651612 0.01)
(0.0244261 -0.0651612 -0.01)
(0.0277059 -0.0663549 -0.01)
(0.0277059 -0.0663549 0.01)
(0.0310412 -0.0673837 -0.01)
(0.0310412 -0.0673837 0.01)
(0.0344235 -0.068245 -0.01)
(0.0344235 -0.068245 0.01)
(0.0378446 -0.0689365 -0.01)
(0.0378446 -0.0689365 0.01)
(0.0412959 -0.0694567 0.01)
(0.0412959 -0.0694567 -0.01)
(0.0447689 -0.0698043 -0.01)
(0.0447689 -0.0698043 0.01)
(0.0482549 -0.0699782 -0.01)
(0.0482549 -0.0699782 0.01)
(0.0517451 -0.0699782 -0.01)
(0.0517451 -0.0699782 0.01)
(0.0552311 -0.0698043 -0.01)
(0.0552311 -0.0698043 0.01)
(0.0587041 -0.0694567 -0.01)
(0.0587041 -0.0694567 0.01)
(0.0621554 -0.0689365 -0.01)
(0.0621554 -0.0689365 0.01)
(0.0655765 -0.068245 -0.01)
(0.0655765 -0.068245 0.01)
(0.0689588 -0.0673837 0.01)
(0.0689588 -0.0673837 -0.01)
(0.0722941 -0.0663549 0.01)
(0.0722941 -0.0663549 -0.01)
(0.0755739 -0.0651612 0.01)
(0.0755739 -0.0651612 -0.01)
(0.0787901 -0.0638054 0.01)
(0.0787901 -0.0638054 -0.01)
(0.0819347 -0.062291 0.01)
(0.085 -0.0606218 0.01)
(0.0819347 -0.062291 -0.01)
(0.085 -0.0606218 -0.01)
(0.0879782 -0.0588018 0.01)
(0.0879782 -0.0588018 -0.01)
(0.0908621 -0.0568357 0.01)
(0.0908621 -0.0568357 -0.01)
(0.0936443 -0.0547282 0.01)
(0.0936443 -0.0547282 -0.01)
(0.096318 -0.0524847 0.01)
(0.096318 -0.0524847 -0.01)
(0.0988766 -0.0501107 0.01)
(0.0988766 -0.0501107 -0.01)
(0.101314 -0.0476121 0.01)
(0.101314 -0.0476121 -0.01)
(0.103623 -0.0449951 -0.01)
(0.103623 -0.0449951 0.01)
(0.105799 -0.0422663 -0.01)
(0.105799 -0.0422663 0.01)
(0.107837 -0.0394324 -0.01)
(0.107837 -0.0394324 0.01)
(0.10973 -0.0365005 -0.01)
(0.10973 -0.0365005 0.01)
(0.111476 -0.0334778 -0.01)
(0.111476 -0.0334778 0.01)
(0.113068 -0.0303719 0.01)
(0.113068 -0.0303719 -0.01)
(0.114503 -0.0271904 0.01)
(0.114503 -0.0271904 -0.01)
(0.115778 -0.0239414 0.01)
(0.11689 -0.0206329 0.01)
(0.115778 -0.0239414 -0.01)
(0.11689 -0.0206329 -0.01)
(0.117835 -0.017273 0.01)
(0.117835 -0.017273 -0.01)
(0.118612 -0.0138702 0.01)
(0.118612 -0.0138702 -0.01)
(0.119218 -0.010433 0.01)
(0.119218 -0.010433 -0.01)
(0.119652 -0.00696975 0.01)
(0.119652 -0.00696975 -0.01)
(0.119913 -0.00348921 0.01)
(0.119913 -0.00348921 -0.01)
)

// edges

252
(
(0 1)
(2 3)
(4 2)
(5 4)
(1 6)
(6 7)
(8 5)
(9 8)
(7 10)
(10 11)
(12 9)
(11 13)
(14 12)
(15 14)
(13 16)
(16 17)
(18 15)
(17 19)
(20 18)
(19 21)
(21 22)
(23 20)
(24 23)
(22 25)
(25 26)
(27 24)
(26 28)
(29 27)
(30 29)
(31 30)
(28 32)
(32 33)
(34 31)
(33 35)
(36 34)
(37 36)
(35 38)
(38 39)
(40 37)
(39 41)
(42 40)
(41 43)
(44 42)
(43 45)
(46 44)
(45 47)
(48 46)
(47 49)
(50 48)
(49 51)
(52 50)
(51 53)
(54 52)
(53 55)
(56 54)
(57 56)
(55 58)
(58 59)
(60 57)
(59 61)
(62 60)
(61 63)
(64 62)
(63 65)
(66 64)
(65 67)
(68 66)
(67 69)
(70 68)
(69 71)
(72 70)
(71 73)
(74 72)
(75 74)
(73 76)
(76 77)
(78 75)
(77 79)
(79 80)
(81 78)
(80 82)
(83 81)
(82 84)
(85 83)
(84 86)
(87 85)
(86 88)
(89 87)
(88 90)
(91 89)
(90 92)
(93 91)
(94 93)
(92 95)
(96 94)
(95 97)
(98 96)
(97 99)
(100 98)
(101 100)
(99 102)
(102 103)
(104 101)
(105 104)
(103 106)
(106 107)
(108 105)
(109 108)
(107 110)
(110 111)
(112 109)
(111 113)
(114 112)
(115 114)
(113 116)
(116 117)
(118 115)
(117 119)
(120 118)
(119 121)
(122 120)
(121 123)
(123 124)
(125 122)
(126 125)
(124 127)
(128 126)
(127 129)
(129 130)
(131 128)
(132 131)
(130 133)
(134 132)
(133 135)
(136 134)
(135 137)
(137 138)
(139 136)
(140 139)
(138 141)
(142 140)
(141 143)
(143 144)
(145 142)
(146 145)
(144 147)
(147 148)
(149 146)
(148 150)
(151 149)
(150 152)
(153 151)
(154 153)
(152 155)
(155 156)
(157 154)
(156 158)
(159 157)
(160 159)
(158 161)
(161 162)
(163 160)
(162 164)
(165 163)
(166 165)
(164 167)
(168 166)
(167 169)
(170 168)
(169 171)
(172 170)
(171 173)
(174 172)
(173 175)
(175 176)
(177 174)
(176 178)
(179 177)
(178 180)
(181 179)
(180 182)
(183 181)
(184 183)
(182 185)
(185 186)
(187 184)
(186 188)
(189 187)
(188 190)
(191 189)
(190 192)
(193 191)
(192 194)
(195 193)
(194 196)
(197 195)
(196 198)
(199 197)
(200 199)
(198 201)
(202 200)
(201 203)
(204 202)
(203 205)
(206 204)
(205 207)
(208 206)
(209 208)
(207 210)
(210 211)
(212 209)
(211 213)
(214 212)
(213 215)
(216 214)
(215 217)
(218 216)
(217 219)
(220 218)
(219 221)
(222 220)
(221 223)
(223 224)
(225 222)
(224 226)
(227 225)
(226 228)
(229 227)
(228 230)
(231 229)
(230 232)
(233 231)
(234 233)
(232 235)
(236 234)
(235 237)
(238 236)
(239 238)
(237 240)
(240 241)
(242 239)
(241 243)
(244 242)
(243 245)
(246 244)
(245 247)
(248 246)
(247 249)
(250 248)
(3 250)
(249 251)
(251 0)
)

// concaveStart mixedStart nonFeatureStart
0 0 0
// internalStart flatStart openStart multipleStart
252 252 252 252
// normals

428
(
(0.999689 0.0249264 -0)
(0 0 -1)
(0.999689 0.0249264 0)
(0 0 1)
(0.9972 0.0747767 0)
(0 0 1)
(0.992239 0.124344 0)
(0 0 1)
(0.9972 0.0747767 0)
(0 0 -1)
(0.992239 0.124344 0)
(0 0 -1)
(0.984811 0.173629 0)
(0 0 1)
(0.974907 0.222611 0)
(0.984811 0.173629 -0)
(0 0 -1)
(0.974907 0.222611 0)
(0.962649 0.270753 0)
(0 0 1)
(0.962649 0.270753 -0)
(0 0 -1)
(0.947893 0.31859 0)
(0 0 1)
(0.930888 0.365305 0)
(0.947893 0.31859 -0)
(0 0 -1)
(0.930888 0.365305 0)
(0.911564 0.411158 0)
(0 0 1)
(0.911564 0.411158 -0)
(0 0 -1)
(0.889907 0.456143 0)
(0.889907 0.456143 -0)
(0.865921 0.500181 -0)
(0 0 -1)
(0.865921 0.500181 0)
(0 0 1)
(0.840107 0.54242 0)
(0 0 1)
(0.840107 0.54242 0)
(0 0 -1)
(0.811861 0.58385 -0)
(0 0 -1)
(0.811861 0.58385 0)
(0 0 1)
(0.781852 0.623464 -0)
(0 0 -1)
(0.781852 0.623464 0)
(0 0 1)
(0.749854 0.661603 0)
(0.715819 0.698285 0)
(0 0 1)
(0.749854 0.661603 -0)
(0.715819 0.698285 0)
(0 0 -1)
(0.680167 0.733058 0)
(0 0 1)
(0.680167 0.733058 -0)
(-0 -0 -1)
(0.642787 0.766045 0)
(0 0 1)
(0.603817 0.797123 0)
(0.642787 0.766045 -0)
(-0 -0 -1)
(0.603817 0.797123 0)
(0.563298 0.826254 0)
(0 0 1)
(0.563298 0.826254 -0)
(-0 -0 -1)
(0.521448 0.853283 0)
(0 0 1)
(0.521448 0.853283 -0)
(-0 -0 -1)
(0.478237 0.878231 0)
(0.478237 0.878231 -0)
(0.433894 0.900964 0)
(0 0 1)
(0.433894 0.900964 -0)
(-0 -0 -1)
(0.388448 0.921471 0)
(0 0 1)
(0.388448 0.921471 -0)
(-0 -0 -1)
(0.342008 0.939697 0)
(0 0 1)
(0.342008 0.939697 -0)
(-0 -0 -1)
(0.294753 0.955573 0)
(0 0 1)
(0.294753 0.955573 -0)
(-0 -0 -1)
(0.246775 0.969073 0)
(0 0 1)
(0.246775 0.969073 -0)
(-0 -0 -1)
(0.19812 0.980178 0)
(0.149042 0.988831 0)
(0 0 1)
(0.19812 0.980178 -0)
(0.149042 0.988831 0)
(-0 -0 -1)
(0.0995908 0.995028 0)
(0 0 1)
(0.0995908 0.995028 -0)
(-0 -0 -1)
(0.0498223 0.998758 0)
(0.0498223 0.998758 -0)
(0 1 0)
(0 0 1)
(0 1 -0)
(-0 -0 -1)
(-0.0498223 0.998758 0)
(0 0 1)
(-0.0498223 0.998758 0)
(0 -0 -1)
(-0.0995908 0.995028 0)
(-0.0995908 0.995028 0)
(-0.149042 0.988831 0)
(0 0 1)
(-0.149042 0.988831 0)
(0 -0 -1)
(-0.19812 0.980178 0)
(0 0 1)
(-0.19812 0.980178 0)
(0 -0 -1)
(-0.246774 0.969073 0)
(0 0 1)
(-0.294754 0.955573 0)
(0 0 1)
(-0.246774 0.969073 0)
(0 -0 -1)
(-0.294754 0.955573 0)
(0 -0 -1)
(-0.342008 0.939697 0)
(-0.342008 0.939697 0)
(-0.388448 0.921471 0)
(0 -0 -1)
(-0.388448 0.921471 0)
(0 0 1)
(-0.433894 0.900964 0)
(0 -0 -1)
(-0.433894 0.900964 0)
(0 0 1)
(-0.478237 0.878231 0)
(-0.478237 0.878231 0)
(-0.521448 0.853283 0)
(0 -0 -1)
(-0.521448 0.853283 0)
(0 0 1)
(-0.563304 0.82625 0)
(0 -0 -1)
(-0.563304 0.82625 0)
(0 0 1)
(-0.603812 0.797126 0)
(-0.603812 0.797126 0)
(-0.642785 0.766047 0)
(0 -0 -1)
(-0.642785 0.766047 0)
(0 0 1)
(-0.680171 0.733053 0)
(0 0 1)
(-0.680171 0.733053 0)
(0 -0 -1)
(-0.715869 0.698234 0)
(0 0 1)
(-0.715869 0.698234 0)
(0 -0 -1)
(-0.749787 0.66168 0)
(-0.749787 0.66168 0)
(-0.781828 0.623494 0)
(0 0 1)
(-0.811939 0.583742 0)
(0 0 1)
(-0.781828 0.623494 0)
(0 -0 -1)
(-0.811939 0.583742 0)
(0 -0 -1)
(-0.840022 0.542552 0)
(0 0 1)
(-0.866027 0.499997 0)
(0 0 1)
(-0.840022 0.542552 0)
(0 -0 -1)
(-0.866027 0.499997 0)
(0 -0 -1)
(-0.889872 0.45621 0)
(-0.911511 0.411276 0)
(0 0 1)
(-0.889872 0.45621 0)
(-0.911511 0.411276 0)
(0 -0 -1)
(-0.930868 0.365356 0)
(-0.930868 0.365356 0)
(-0.947927 0.318487 0)
(0 0 1)
(-0.962626 0.270833 0)
(0 0 1)
(-0.947927 0.318487 0)
(0 -0 -1)
(-0.962626 0.270833 0)
(0 -0 -1)
(-0.974926 0.22253 0)
(0 0 1)
(-0.974926 0.22253 0)
(0 -0 -1)
(-0.984806 0.173656 0)
(-0.984806 0.173656 0)
(-0.992239 0.124343 0)
(0 0 1)
(-0.992239 0.124343 0)
(0 -0 -1)
(-0.997204 0.0747209 0)
(0 -0 -1)
(-0.997204 0.0747209 0)
(0 0 1)
(-0.999689 0.0249264 0)
(-0.999689 0.0249264 0)
(-0.999689 -0.0249264 -0)
(0 0 1)
(-0.999689 -0.0249264 0)
(0 0 -1)
(-0.997204 -0.0747209 0)
(-0.997204 -0.0747209 0)
(-0.992239 -0.124343 -0)
(0 0 1)
(-0.992239 -0.124343 0)
(0 0 -1)
(-0.984806 -0.173656 -0)
(0 0 1)
(-0.984806 -0.173656 0)
(0 0 -1)
(-0.974926 -0.22253 -0)
(0 0 1)
(-0.974926 -0.22253 0)
(0 0 -1)
(-0.962626 -0.270833 0)
(-0.962626 -0.270833 0)
(-0.947927 -0.318487 -0)
(0 0 1)
(-0.947927 -0.318487 0)
(0 0 -1)
(-0.930868 -0.365356 -0)
(-0.930868 -0.365356 0)
(-0.911511 -0.411276 0)
(0 0 -1)
(-0.911511 -0.411276 0)
(0 0 1)
(-0.889872 -0.45621 -0)
(-0.889872 -0.45621 0)
(-0.866027 -0.499997 0)
(0 0 -1)
(-0.866027 -0.499997 0)
(0 0 1)
(-0.840022 -0.542552 0)
(0 0 -1)
(-0.840022 -0.542552 0)
(0 0 1)
(-0.811939 -0.583742 0)
(0 0 -1)
(-0.811939 -0.583742 0)
(0 0 1)
(-0.781828 -0.623494 -0)
(-0.781828 -0.623494 0)
(-0.749787 -0.66168 0)
(0 0 -1)
(-0.749787 -0.66168 0)
(0 0 1)
(-0.715869 -0.698234 0)
(0 0 -1)
(-0.715869 -0.698234 0)
(0 0 1)
(-0.680171 -0.733053 -0)
(0 0 1)
(-0.680171 -0.733053 0)
(0 0 -1)
(-0.642785 -0.766047 0)
(0 0 -1)
(-0.642785 -0.766047 0)
(0 0 1)
(-0.603812 -0.797126 0)
(-0.603812 -0.797126 0)
(-0.563304 -0.82625 0)
(0 0 1)
(-0.563304 -0.82625 0)
(0 0 -1)
(-0.521448 -0.853283 -0)
(0 0 1)
(-0.521448 -0.853283 0)
(0 0 -1)
(-0.478237 -0.878231 0)
(0 0 1)
(-0.478237 -0.878231 0)
(0 0 -1)
(-0.433894 -0.900964 0)
(0 0 1)
(-0.433894 -0.900964 0)
(0 0 -1)
(-0.388448 -0.921471 0)
(-0.388448 -0.921471 0)
(-0.342008 -0.939697 0)
(0 0 -1)
(-0.342008 -0.939697 0)
(0 0 1)
(-0.294754 -0.955573 0)
(-0.294754 -0.955573 0)
(-0.246774 -0.969073 0)
(0 0 -1)
(-0.246774 -0.969073 0)
(0 0 1)
(-0.19812 -0.980178 0)
(-0.19812 -0.980178 0)
(-0.149042 -0.988831 -0)
(0 0 1)
(-0.149042 -0.988831 0)
(0 0 -1)
(-0.0995908 -0.995028 0)
(-0.0995908 -0.995028 0)
(-0.0498223 -0.998758 0)
(0 0 -1)
(-0.0498223 -0.998758 0)
(0 0 1)
(0 -1 0)
(0 0 -1)
(0 -1 0)
(0 0 1)
(0.0498223 -0.998758 0)
(0 0 -1)
(0.0498223 -0.998758 0)
(0 0 1)
(0.0995908 -0.995028 0)
(0.0995908 -0.995028 0)
(0.149042 -0.988831 0)
(0 0 -1)
(0.149042 -0.988831 0)
(0 0 1)
(0.19812 -0.980178 0)
(0 0 -1)
(0.19812 -0.980178 0)
(0 0 1)
(0.246775 -0.969073 0)
(0.246775 -0.969073 0)
(0.294753 -0.955573 0)
(0 0 1)
(0.294753 -0.955573 0)
(0 0 -1)
(0.342008 -0.939697 0)
(0 0 1)
(0.342008 -0.939697 0)
(0 0 -1)
(0.388448 -0.921471 0)
(0.388448 -0.921471 0)
(0.433894 -0.900964 0)
(0 0 1)
(0.478237 -0.878231 0)
(0.433894 -0.900964 0)
(0 0 -1)
(0.478237 -0.878231 0)
(0.521448 -0.853283 0)
(0 0 1)
(0.521448 -0.853283 0)
(0 0 -1)
(0.563298 -0.826254 0)
(0.563298 -0.826254 0)
(0.603817 -0.797123 0)
(0 0 1)
(0.603817 -0.797123 0)
(0 0 -1)
(0.642787 -0.766045 0)
(0.642787 -0.766045 0)
(0.680167 -0.733058 0)
(0 0 1)
(0.680167 -0.733058 0)
(0 0 -1)
(0.715819 -0.698285 0)
(0 0 1)
(0.715819 -0.698285 0)
(0 0 -1)
(0.749854 -0.661603 0)
(0.749854 -0.661603 0)
(0.781852 -0.623464 0)
(0 0 -1)
(0.781852 -0.623464 0)
(0 0 1)
(0.811861 -0.58385 0)
(0.811861 -0.58385 0)
(0.840107 -0.54242 0)
(0 0 -1)
(0.840107 -0.54242 0)
(0 0 1)
(0.865921 -0.500181 0)
(0 0 -1)
(0.865921 -0.500181 0)
(0 0 1)
(0.889907 -0.456143 0)
(0.889907 -0.456143 0)
(0.911564 -0.411158 0)
(0 0 1)
(0.911564 -0.411158 0)
(0 0 -1)
(0.930888 -0.365305 0)
(0 0 1)
(0.947893 -0.31859 0)
(0 0 1)
(0.930888 -0.365305 0)
(0 0 -1)
(0.947893 -0.31859 0)
(0 0 -1)
(0.962649 -0.270753 0)
(0 0 1)
(0.962649 -0.270753 0)
(0 0 -1)
(0.974907 -0.222611 0)
(0.974907 -0.222611 0)
(0.984811 -0.173629 0)
(0 0 1)
(0.984811 -0.173629 0)
(0 0 -1)
(0.992239 -0.124344 0)
(0 0 1)
(0.992239 -0.124344 0)
(0 0 -1)
(0.9972 -0.0747767 0)
(0 0 1)
(0.999689 -0.0249264 0)
(0.9972 -0.0747767 0)
(0 0 -1)
(0.999689 -0.0249264 0)
)

// normal volume types

428
(
0
0
0
0
0
0
0
0
0
0
0
0
0
0
0
0
0
0
0
0
0
0
0
0
0
0
0
0
0
0
0
0
0
0
0
0
0
0
0
0
0
0
0
0
0
0
0
0
0
0
0
0
0
0
0
0
0
0
0
0
0
0
0
0
0
0
0
0
0
0
0
0
0
0
0
0
0
0
0
0
0
0
0
0
0
0
0
0
0
0
0
0
0
0
0
0
0
0
0
0
0
0
0
0
0
0
0
0
0
0
0
0
0
0
0
0
0
0
0
0
0
0
0
0
0
0
0
0
0
0
0
0
0
0
0
0
0
0
0
0
0
0
0
0
0
0
0
0
0
0
0
0
0
0
0
0
0
0
0
0
0
0
0
0
0
0
0
0
0
0
0
0
0
0
0
0
0
0
0
0
0
0
0
0
0
0
0
0
0
0
0
0
0
0
0
0
0
0
0
0
0
0
0
0
0
0
0
0
0
0
0
0
0
0
0
0
0
0
0
0
0
0
0
0
0
0
0
0
0
0
0
0
0
0
0
0
0
0
0
0
0
0
0
0
0
0
0
0
0
0
0
0
0
0
0
0
0
0
0
0
0
0
0
0
0
0
0
0
0
0
0
0
0
0
0
0
0
0
0
0
0
0
0
0
0
0
0
0
0
0
0
0
0
0
0
0
0
0
0
0
0
0
0
0
0
0
0
0
0
0
0
0
0
0
0
0
0
0
0
0
0
0
0
0
0
0
0
0
0
0
0
0
0
0
0
0
0
0
0
0
0
0
0
0
0
0
0
0
0
0
0
0
0
0
0
0
0
0
0
0
0
0
0
0
0
0
0
0
0
0
0
0
0
0
0
0
0
0
0
0
0
0
0
0
0
0
0
0
0
0
0
0
0
0
0
0
0
0
0
0
0
0
0
0
0
0
0
0
0
0
0
0
0
0
0
0
0
0
0
0
0
0
0
0
0
0
0
0
)

// normalDirections

252
(
2(1 -1)
2(1 -1)
2(1 -1)
2(1 -1)
2(1 -1)
2(1 -1)
2(1 -1)
2(1 -1)
2(1 -1)
2(1 -1)
2(1 -1)
2(1 -1)
2(1 -1)
2(1 -1)
2(1 -1)
2(1 -1)
2(1 -1)
2(1 -1)
2(1 -1)
2(1 -1)
2(1 -1)
2(1 -1)
2(1 -1)
2(1 -1)
2(1 -1)
2(1 -1)
2(1 -1)
2(1 -1)
2(1 -1)
2(1 -1)
2(1 -1)
2(1 -1)
2(1 -1)
2(1 -1)
2(1 -1)
2(1 -1)
2(1 -1)
2(1 -1)
2(1 -1)
2(1 -1)
2(1 -1)
2(1 -1)
2(1 -1)
2(1 -1)
2(1 -1)
2(1 -1)
2(1 -1)
2(1 -1)
2(1 -1)
2(1 -1)
2(1 -1)
2(1 -1)
2(1 -1)
2(1 -1)
2(1 -1)
2(1 -1)
2(1 -1)
2(1 -1)
2(1 -1)
2(1 -1)
2(1 -1)
2(1 -1)
2(1 -1)
2(1 -1)
2(1 -1)
2(1 -1)
2(1 -1)
2(1 -1)
2(1 -1)
2(1 -1)
2(1 -1)
2(1 -1)
2(1 -1)
2(1 -1)
2(1 -1)
2(1 -1)
2(1 -1)
2(1 -1)
2(1 -1)
2(1 -1)
2(1 -1)
2(1 -1)
2(1 -1)
2(1 -1)
2(1 -1)
2(1 -1)
2(1 -1)
2(1 -1)
2(1 -1)
2(1 -1)
2(1 -1)
2(1 -1)
2(1 -1)
2(1 -1)
2(1 -1)
2(1 -1)
2(1 -1)
2(1 -1)
2(1 -1)
2(1 -1)
2(1 -1)
2(1 -1)
2(1 -1)
2(1 -1)
2(1 -1)
2(1 -1)
2(1 -1)
2(1 -1)
2(1 -1)
2(1 -1)
2(1 -1)
2(1 -1)
2(1 -1)
2(1 -1)
2(1 -1)
2(1 -1)
2(1 -1)
2(1 -1)
2(1 -1)
2(1 -1)
2(1 -1)
2(1 -1)
2(1 -1)
2(1 -1)
2(1 -1)
2(1 -1)
2(1 -1)
2(1 -1)
2(1 -1)
2(1 -1)
2(1 -1)
2(1 -1)
2(1 -1)
2(1 -1)
2(1 -1)
2(1 -1)
2(1 -1)
2(1 -1)
2(1 -1)
2(1 -1)
2(1 -1)
2(1 -1)
2(1 -1)
2(1 -1)
2(1 -1)
2(1 -1)
2(1 -1)
2(1 -1)
2(1 -1)
2(1 -1)
2(1 -1)
2(1 -1)
2(1 -1)
2(1 -1)
2(1 -1)
2(1 -1)
2(1 -1)
2(1 -1)
2(1 -1)
2(1 -1)
2(1 -1)
2(1 -1)
2(1 -1)
2(1 -1)
2(1 -1)
2(1 -1)
2(1 -1)
2(1 -1)
2(1 -1)
2(1 -1)
2(1 -1)
2(1 -1)
2(1 -1)
2(1 -1)
2(1 -1)
2(1 -1)
2(1 -1)
2(1 -1)
2(1 -1)
2(1 -1)
2(1 -1)
2(1 -1)
2(1 -1)
2(1 -1)
2(1 -1)
2(1 -1)
2(1 -1)
2(1 -1)
2(1 -1)
2(1 -1)
2(1 -1)
2(1 -1)
2(1 -1)
2(1 -1)
2(1 -1)
2(1 -1)
2(1 -1)
2(1 -1)
2(1 -1)
2(1 -1)
2(1 -1)
2(1 -1)
2(1 -1)
2(1 -1)
2(1 -1)
2(1 -1)
2(1 -1)
2(1 -1)
2(1 -1)
2(1 -1)
2(1 -1)
2(1 -1)
2(1 -1)
2(1 -1)
2(1 -1)
2(1 -1)
2(1 -1)
2(1 -1)
2(1 -1)
2(1 -1)
2(1 -1)
2(1 -1)
2(1 -1)
2(1 -1)
2(1 -1)
2(1 -1)
2(1 -1)
2(1 -1)
2(1 -1)
2(1 -1)
2(1 -1)
2(1 -1)
2(1 -1)
2(1 -1)
2(1 -1)
2(1 -1)
2(1 -1)
2(1 -1)
2(1 -1)
2(1 -1)
2(1 -1)
2(1 -1)
2(1 -1)
2(1 -1)
2(1 -1)
2(1 -1)
2(1 -1)
2(1 -1)
2(1 -1)
2(1 -1)
2(1 -1)
2(1 -1)
)

// edgeNormals

252
(
2(0 1)
2(2 3)
2(4 5)
2(6 7)
2(8 9)
2(10 11)
2(12 13)
2(14 13)
2(15 16)
2(17 16)
2(18 19)
2(20 21)
2(22 23)
2(24 23)
2(25 26)
2(27 26)
2(28 29)
2(30 31)
2(32 29)
2(33 31)
2(34 35)
2(36 37)
2(38 39)
2(40 41)
2(42 43)
2(44 45)
2(46 47)
2(48 49)
2(50 49)
2(51 52)
2(53 47)
2(54 55)
2(56 57)
2(58 59)
2(60 61)
2(62 61)
2(63 64)
2(65 64)
2(66 67)
2(68 69)
2(70 71)
2(72 73)
2(74 71)
2(75 73)
2(76 77)
2(78 79)
2(80 81)
2(82 83)
2(84 85)
2(86 87)
2(88 89)
2(90 91)
2(92 93)
2(94 95)
2(96 93)
2(97 98)
2(99 95)
2(100 101)
2(102 103)
2(104 105)
2(106 103)
2(107 105)
2(108 109)
2(110 111)
2(112 113)
2(114 115)
2(116 113)
2(117 115)
2(118 119)
2(120 121)
2(122 123)
2(124 125)
2(126 127)
2(128 129)
2(130 131)
2(132 133)
2(134 129)
2(135 133)
2(136 137)
2(138 139)
2(140 141)
2(142 143)
2(144 141)
2(145 143)
2(146 147)
2(148 149)
2(150 151)
2(152 153)
2(154 151)
2(155 153)
2(156 157)
2(158 159)
2(160 161)
2(162 163)
2(164 165)
2(166 167)
2(168 165)
2(169 167)
2(170 171)
2(172 173)
2(174 175)
2(176 177)
2(178 179)
2(180 181)
2(182 183)
2(184 185)
2(186 181)
2(187 188)
2(189 185)
2(190 191)
2(192 188)
2(193 191)
2(194 195)
2(196 197)
2(198 199)
2(200 201)
2(202 203)
2(204 205)
2(206 203)
2(207 205)
2(208 209)
2(210 211)
2(212 213)
2(214 215)
2(216 215)
2(217 213)
2(218 219)
2(220 221)
2(222 221)
2(223 219)
2(224 225)
2(226 227)
2(228 229)
2(230 231)
2(232 233)
2(234 235)
2(236 235)
2(237 233)
2(238 239)
2(240 241)
2(242 239)
2(243 241)
2(244 245)
2(246 247)
2(248 247)
2(249 245)
2(250 251)
2(252 253)
2(254 255)
2(256 257)
2(258 259)
2(260 261)
2(262 261)
2(263 259)
2(264 265)
2(266 267)
2(268 269)
2(270 271)
2(272 273)
2(274 275)
2(276 277)
2(278 279)
2(280 277)
2(281 279)
2(282 283)
2(284 285)
2(286 287)
2(288 289)
2(290 291)
2(292 293)
2(294 295)
2(296 297)
2(298 295)
2(299 297)
2(300 301)
2(302 303)
2(304 301)
2(305 303)
2(306 307)
2(308 309)
2(310 307)
2(311 309)
2(312 313)
2(314 315)
2(316 315)
2(317 313)
2(318 319)
2(320 321)
2(322 323)
2(324 325)
2(326 327)
2(328 329)
2(330 327)
2(331 329)
2(332 333)
2(334 335)
2(336 337)
2(338 339)
2(340 339)
2(341 337)
2(342 343)
2(344 345)
2(346 347)
2(348 349)
2(350 347)
2(351 349)
2(352 353)
2(354 353)
2(355 356)
2(357 356)
2(358 359)
2(360 361)
2(362 359)
2(363 361)
2(364 365)
2(366 367)
2(368 365)
2(369 367)
2(370 371)
2(372 373)
2(374 375)
2(376 377)
2(378 377)
2(379 375)
2(380 381)
2(382 383)
2(384 381)
2(385 383)
2(386 387)
2(388 389)
2(390 391)
2(392 393)
2(394 393)
2(395 391)
2(396 397)
2(398 399)
2(400 401)
2(402 403)
2(404 405)
2(406 407)
2(408 409)
2(410 411)
2(412 409)
2(413 411)
2(414 415)
2(416 417)
2(418 419)
2(420 421)
2(422 423)
2(424 3)
2(425 426)
2(427 1)
)

// featurePointNormals
0()
// featurePointEdges
0()
// regionEdges
0()


// ************************************************************************* //
