/*--------------------------------*- C++ -*----------------------------------*\
  =========                 |
  \\      /  F ield         | OpenFOAM: The Open Source CFD Toolbox
   \\    /   O peration     | Website:  https://openfoam.org
    \\  /    A nd           | Version:  9
     \\/     M anipulation  |
\*---------------------------------------------------------------------------*/
FoamFile
{
    format      ascii;
    class       extendedFeatureEdgeMesh;
    location    "constant/extendedFeatureEdgeMesh";
    object      surfacemesh.extendedFeatureEdgeMesh;
}
// * * * * * * * * * * * * * * * * * * * * * * * * * * * * * * * * * * * * * //

// points

32
(
(0.048 1.76349e-17 0.0141734)
(0.0443462 0.0183688 0.0141734)
(0.0183688 -0.0443462 0.0141734)
(0.0339411 -0.0339411 0.0141734)
(0.0443462 -0.0183688 0.0141734)
(-0.0339411 -0.0339411 0.0141734)
(-0.0183688 -0.0443462 0.0141734)
(8.81746e-18 -0.048 0.0141734)
(-0.0443462 0.0183688 0.0141734)
(-0.048 -1.17566e-17 0.0141734)
(-0.0443462 -0.0183688 0.0141734)
(7.71899e-18 0.048 0.0141734)
(-0.0183688 0.0443462 0.0141734)
(-0.0339411 0.0339411 0.0141734)
(0.0339411 0.0339411 0.0141734)
(0.0183688 0.0443462 0.0141734)
(-0.0443462 0.0183688 0.00417342)
(-0.048 -1.17566e-17 0.00417342)
(-0.0339411 0.0339411 0.00417342)
(-0.0183688 0.0443462 0.00417342)
(7.71899e-18 0.048 0.00417342)
(0.0183688 0.0443462 0.00417342)
(0.0339411 0.0339411 0.00417342)
(0.0443462 0.0183688 0.00417342)
(0.048 5.8783e-18 0.00417342)
(0.0443462 -0.0183688 0.00417342)
(0.0339411 -0.0339411 0.00417342)
(0.0183688 -0.0443462 0.00417342)
(8.81746e-18 -0.048 0.00417342)
(-0.0183688 -0.0443462 0.00417342)
(-0.0339411 -0.0339411 0.00417342)
(-0.0443462 -0.0183688 0.00417342)
)

// edges

32
(
(0 1)
(2 3)
(3 4)
(4 0)
(5 6)
(6 7)
(7 2)
(8 9)
(9 10)
(10 5)
(11 12)
(12 13)
(13 8)
(1 14)
(14 15)
(15 11)
(16 17)
(18 16)
(19 18)
(20 19)
(21 20)
(22 21)
(23 22)
(24 23)
(25 24)
(26 25)
(27 26)
(28 27)
(29 28)
(30 29)
(31 30)
(17 31)
)

// concaveStart mixedStart nonFeatureStart
0 0 0
// internalStart flatStart openStart multipleStart
32 32 32 32
// normals

64
(
(0 0 1)
(0.980785 0.195091 -0)
(0 -0 1)
(0.555571 -0.831469 0)
(0 -0 1)
(0.831469 -0.555571 0)
(0 -0 1)
(0.980785 -0.195091 2.29362e-16)
(-0 0 1)
(-0.555571 -0.831469 0)
(-0 0 1)
(-0.195091 -0.980785 0)
(0 -0 1)
(0.195091 -0.980785 0)
(0 0 1)
(-0.980785 0.195091 0)
(-0 0 1)
(-0.980785 -0.195091 0)
(-0 0 1)
(-0.831469 -0.555571 0)
(0 0 1)
(-0.195091 0.980785 0)
(0 0 1)
(-0.555571 0.831469 0)
(0 0 1)
(-0.831469 0.555571 0)
(0 0 1)
(0.831469 0.555571 -0)
(0 0 1)
(0.555571 0.831469 -0)
(0 0 1)
(0.195091 0.980785 -0)
(-0.980785 0.195091 0)
(0 0 -1)
(-0.831469 0.555571 0)
(0 0 -1)
(-0.555571 0.831469 0)
(0 0 -1)
(-0.195091 0.980785 0)
(0 0 -1)
(0.195091 0.980785 0)
(0 -0 -1)
(0.555571 0.831469 0)
(0 -0 -1)
(0.831469 0.555571 0)
(0 -0 -1)
(0.980785 0.195091 -2.29362e-16)
(0 -0 -1)
(0.980785 -0.195091 0)
(0 0 -1)
(0.831469 -0.555571 0)
(0 0 -1)
(0.555571 -0.831469 0)
(-0 0 -1)
(0.195091 -0.980785 0)
(-0 0 -1)
(-0.195091 -0.980785 -0)
(0 0 -1)
(-0.555571 -0.831469 -0)
(0 0 -1)
(-0.831469 -0.555571 -0)
(0 0 -1)
(-0.980785 -0.195091 -0)
(0 0 -1)
)

// normal volume types

64
(
0
0
0
0
0
0
0
0
0
0
0
0
0
0
0
0
0
0
0
0
0
0
0
0
0
0
0
0
0
0
0
0
0
0
0
0
0
0
0
0
0
0
0
0
0
0
0
0
0
0
0
0
0
0
0
0
0
0
0
0
0
0
0
0
)

// normalDirections

32
(
2(1 -1)
2(1 -1)
2(1 -1)
2(1 -1)
2(1 -1)
2(1 -1)
2(1 -1)
2(1 -1)
2(1 -1)
2(1 -1)
2(1 -1)
2(1 -1)
2(1 -1)
2(1 -1)
2(1 -1)
2(1 -1)
2(1 -1)
2(1 -1)
2(1 -1)
2(1 -1)
2(1 -1)
2(1 -1)
2(1 -1)
2(1 -1)
2(1 -1)
2(1 -1)
2(1 -1)
2(1 -1)
2(1 -1)
2(1 -1)
2(1 -1)
2(1 -1)
)

// edgeNormals

32
(
2(0 1)
2(2 3)
2(4 5)
2(6 7)
2(8 9)
2(10 11)
2(12 13)
2(14 15)
2(16 17)
2(18 19)
2(20 21)
2(22 23)
2(24 25)
2(26 27)
2(28 29)
2(30 31)
2(32 33)
2(34 35)
2(36 37)
2(38 39)
2(40 41)
2(42 43)
2(44 45)
2(46 47)
2(48 49)
2(50 51)
2(52 53)
2(54 55)
2(56 57)
2(58 59)
2(60 61)
2(62 63)
)

// featurePointNormals
0()
// featurePointEdges
0()
// regionEdges
0()


// ************************************************************************* //
