/*--------------------------------*- C++ -*----------------------------------*\
  =========                 |				
  \\      /  F ield         | OpenFOAM: The Open Source CFD Toolbox
   \\    /   O peration     | Website:  https://openfoam.org
    \\  /    A nd           | Version:  9                                   	
     \\/     M anipulation  |
\*---------------------------------------------------------------------------*/
FoamFile
{
    format      ascii;
    class       dictionary;
    object      blockMeshDict;
}
// * * * * * * * * * * * * * * * * * * * * * * * * * * * * * * * * * * * * * //

convertToMeters 0.01;

xmin -30.0;
xmax  30.0;
ymin -30.0;
ymax  30.0;
zmin -30.0;
zmax  30.0;

/*
xcells 30;
ycells 20;
zcells 20;
*/

dx 1;
dy 1;
dz 1;

lx #calc "$xmax - $xmin";
ly #calc "$ymax - $ymin";
lz #calc "$zmax - $zmin";

xcells #calc "abs(($lx)/($dx))";
ycells #calc "abs(($ly)/($dy))";
zcells #calc "abs(($lz)/($dz))";

vertices        
(
    ($xmin  $ymin  $zmin)
    ($xmax  $ymin  $zmin)
    ($xmax  $ymax  $zmin)
    ($xmin  $ymax  $zmin)
    ($xmin  $ymin  $zmax)
    ($xmax  $ymin  $zmax)
    ($xmax  $ymax  $zmax)
    ($xmin  $ymax  $zmax)
);

blocks          
(
    hex (0 1 2 3 4 5 6 7) ($xcells $ycells $zcells) simpleGrading (1 1 1)
);

edges           
(
);


boundary        
(
    minX
    {
        type patch;
	faces
	( 
            (0 4 7 3)
	);
    }

    maxX
    {
        type patch;
	faces
	( 
            (2 6 5 1)
	);
    }

    minY
    {
        type patch;
	faces
	( 
            (1 5 4 0)
	);
    }

    maxY 
    {
        type patch;
	faces
	( 
            (3 7 6 2)
	);
    }

    minZ
    {
        type patch;
	faces
	( 
            (0 3 2 1)
	);
    }

    maxZ
    {
        type patch;
	faces
	( 
            (4 5 6 7)
	);
    }

);

mergePatchPairs 
(
);

// ************************************************************************* //
