/*--------------------------------*- C++ -*----------------------------------*\
  =========                 |				
  \\      /  F ield         | OpenFOAM: The Open Source CFD Toolbox
   \\    /   O peration     | Website:  https://openfoam.org
    \\  /    A nd           | Version:  9                                   	
     \\/     M anipulation  |
\*---------------------------------------------------------------------------*/
FoamFile
{
    format      ascii;
    class       dictionary;
    object      snappyHexMeshDict;
}
// * * * * * * * * * * * * * * * * * * * * * * * * * * * * * * * * * * * * * //

// Which of the steps to run
castellatedMesh true;
snap            true;
addLayers       false;

geometry
{
    rollRight.stl
    {
        type triSurfaceMesh;
        name rollRight_stlSurface;


    }

    cylinderRight
    {
    type            searchableCylinder;
    point1          (0.05 0 -0.03);
    point2          (0.05 0 0.03);
    radius          0.05;
    }


    rollLeft.stl
    {
        type triSurfaceMesh;
        name rollLeft_stlSurface;


    }
    cylinderLeft
    {
    type            searchableCylinder;
    point1          (0.05 0 -0.03);
    point2          (0.05 0 0.03);
    radius          0.05;
    }

};

// Settings for the castellatedMesh generation.
castellatedMeshControls
{

    // Refinement parameters
    // ~~~~~~~~~~~~~~~~~~~~~

    maxLocalCells 100000;

    maxGlobalCells 2000000;

    minRefinementCells 0;

    maxLoadUnbalance 0.10;

    nCellsBetweenLevels 3;

    // Explicit feature edge refinement
    // ~~~~~~~~~~~~~~~~~~~~~~~~~~~~~~~~

    features
    (

        {
            file "rollRight.eMesh";
            level 0;
        }

        {
            file "rollLeft.eMesh";
            level 0;
        }

    );

    
    refinementSurfaces
    {

        rollRight_stlSurface
        {
            level (2 2);
        }
         rollLeft_stlSurface
        {
            level (2 2);
        }
    }



    // Feature angle:
    resolveFeatureAngle 30;	

    planarAngle 30;

    // Region-wise refinement
    // ~~~~~~~~~~~~~~~~~~~~~~

    refinementRegions
    {
         cylinderRight
        {
            mode outside;        	// inside - outside
            levels ((1 1));     	// min max

        }

         cylinderLeft
        {
            mode outside;        	// inside - outside
            levels ((1 1));     	// min max

        }
    }

    locationInMesh (0.00 -0.1 0.00); 

    allowFreeStandingZoneFaces true;

}

// Settings for the snapping.
snapControls
{
    nSmoothPatch 3;	//recommended
    //nSmoothPatch 10;	//improved

    tolerance 2.0;
    //tolerance 1.0;

    nSolveIter 30;	//recommended
    //nSolveIter 100;	//improved

    nRelaxIter 5;	//recommended
    //nRelaxIter 10;	//improved	10-20-50

    // Feature snapping

        nFeatureSnapIter 10;	//recommended
        //nFeatureSnapIter 100;	//improved 	20-50-100

        implicitFeatureSnap false;

        explicitFeatureSnap true;

        multiRegionFeatureSnap false;

}

// Settings for the layer addition.
addLayersControls
{
    relativeSizes true;

    expansionRatio 1.2;

    finalLayerThickness 0.5;

    minThickness 0.1;

    layers
    {
        rollRight_stlSurface 
        {
            nSurfaceLayers 3;
        }
         rollLeft_stlSurface 
        {
            nSurfaceLayers 3;
        }
    }

    nGrow 0;

    // Advanced settings
        featureAngle 130;		//default
        maxFaceThicknessRatio 0.5;
        nSmoothSurfaceNormals 1;
        nSmoothThickness 10;
        minMedialAxisAngle 90;
        minMedianAxisAngle 90;
        maxThicknessToMedialRatio 0.3;
        nSmoothNormals 3;
        slipFeatureAngle 30;
        nRelaxIter 5;
        nBufferCellsNoExtrude 0;
        nLayerIter 50;
        nRelaxedIter 20;
}

// Generic mesh quality settings. At any undoable phase these determine where to undo.
meshQualityControls
{
    #include "meshQualityDict"

    relaxed
    {
        // Maximum non-orthogonality allowed. Set to 180 to disable.
        maxNonOrtho 75;
    }

    //minFlatness 0.5;

    // Advanced

        // Number of error distribution iterations
        nSmoothScale 4;
        // amount to scale back displacement at error points
        errorReduction 0.75;
}


debugFlags
(
  
);



mergeTolerance 1e-6;

// ************************************************************************* //
