/*--------------------------------*- C++ -*----------------------------------*\
  =========                 |				
  \\      /  F ield         | OpenFOAM: The Open Source CFD Toolbox
   \\    /   O peration     | Website:  https://openfoam.org
    \\  /    A nd           | Version:  9                                   	
     \\/     M anipulation  |
\*---------------------------------------------------------------------------*/
FoamFile
{
    format      ascii;
    class       dictionary;
    object      dynamicMeshDict;
}
// * * * * * * * * * * * * * * * * * * * * * * * * * * * * * * * * * * * * * //

dynamicFvMesh   	dynamicMotionSolverFvMesh;

motionSolverLibs ( "libfvMotionSolvers.so" );

motionSolver            	multiSolidBodyMotionSolver;

multiSolidBodyMotionSolverCoeffs
{

    rollRightArea
    {
        solidBodyMotionFunction  rotatingMotion;
        rotatingMotionCoeffs
        {
            origin        (0.07 0 0);
            axis          (0 0 1);
	    omega         constant 6.283185;	//360 deg/s
        }
    }

    rollLeftArea
    {
        solidBodyMotionFunction  rotatingMotion;
        rotatingMotionCoeffs
        {
            origin        (-0.07 0 0);
            axis          (0 0 1);
	    omega         constant 6.283185;	//360 deg/s
        }
    }

}
// ************************************************************************* //
